REMARK VINA RESULT:    -8.831      3.017      5.321
REMARK INTER + INTRA:         -19.130
REMARK INTER:                 -16.041
REMARK INTRA:                  -3.089
REMARK UNBOUND:                -2.040
REMARK  16 active torsions:
REMARK  status: ('A' for Active; 'I' for Inactive)
REMARK    1  A    between atoms: C1_1  and  C2_4 
REMARK    2  A    between atoms: C1_1  and  C3_6 
REMARK    3  A    between atoms: C2_4  and  C4_9 
REMARK    4  A    between atoms: C2_4  and  N2_33 
REMARK    5  A    between atoms: C3_6  and  N1_14 
REMARK    6  A    between atoms: C4_9  and  S1_12 
REMARK    7  A    between atoms: S1_12  and  C5_13 
REMARK    8  A    between atoms: N2_33  and  C17_41 
REMARK    9  A    between atoms: C14_37  and  S2_44 
REMARK   10  A    between atoms: C16_40  and  N7_102 
REMARK   11  A    between atoms: S2_44  and  N6_97 
REMARK   12  A    between atoms: C21_51  and  C25_57 
REMARK   13  A    between atoms: C22_52  and  C31_67 
REMARK   14  A    between atoms: C31_67  and  N3_70 
REMARK   15  A    between atoms: N4_77  and  C36_84 
REMARK   16  A    between atoms: C42_96  and  N6_97 
ROOT
HETATM    1  C1  1E9 A 201      21.273  30.788  17.144  1.00 31.62     0.056 C 
ENDROOT
BRANCH   1   2
HETATM    2  C2  1E9 A 201      20.762  29.332  17.125  1.00 26.22     0.093 C 
BRANCH   2   3
HETATM    3  C4  1E9 A 201      21.400  28.547  15.947  1.00 25.82     0.104 C 
BRANCH   3   4
HETATM    4  S1  1E9 A 201      21.693  29.451  14.379  1.00 29.66    -0.128 SA
BRANCH   4   5
HETATM    5  C5  1E9 A 201      22.353  28.296  13.231  1.00 22.11     0.000 A 
HETATM    6  C8  1E9 A 201      21.714  28.089  11.995  1.00 22.15     0.018 A 
HETATM    7  C9  1E9 A 201      22.259  27.159  11.088  1.00 19.48     0.001 A 
HETATM    8  C10 1E9 A 201      23.438  26.457  11.416  1.00 17.77     0.000 A 
HETATM    9  C11 1E9 A 201      24.073  26.670  12.656  1.00 21.70     0.001 A 
HETATM   10  C12 1E9 A 201      23.531  27.598  13.567  1.00 20.86     0.018 A 
ENDBRANCH   4   5
ENDBRANCH   3   4
ENDBRANCH   2   3
BRANCH   2  11
HETATM   11  N2  1E9 A 201      19.301  29.260  17.083  1.00 23.64    -0.383 N 
HETATM   12  H2  1E9 A 201      18.788  29.925  17.662  1.00  0.00     0.160 HD
BRANCH  11  13
HETATM   13  C17 1E9 A 201      18.565  28.393  16.349  1.00 22.61     0.061 A 
HETATM   14  C16 1E9 A 201      17.936  28.772  15.127  1.00 23.52     0.130 A 
HETATM   15  C15 1E9 A 201      17.185  27.812  14.416  1.00 21.63     0.063 A 
HETATM   16  C14 1E9 A 201      17.078  26.499  14.896  1.00 23.02     0.082 A 
HETATM   17  C13 1E9 A 201      17.703  26.102  16.087  1.00 21.77     0.028 A 
HETATM   18  C18 1E9 A 201      18.438  27.054  16.804  1.00 19.95     0.033 A 
BRANCH  14  19
HETATM   19  N7  1E9 A 201      17.990  30.139  14.568  1.00 25.21    -0.113 N 
HETATM   20  O5  1E9 A 201      18.068  30.261  13.350  1.00 29.38    -0.532 OA
HETATM   21  O6  1E9 A 201      17.906  31.093  15.329  1.00 22.75    -0.532 OA
ENDBRANCH  14  19
BRANCH  16  22
HETATM   22  S2  1E9 A 201      16.141  25.332  13.936  1.00 22.41     0.264 S 
HETATM   23  O1  1E9 A 201      14.777  25.262  14.482  1.00 23.80    -0.200 OA
HETATM   24  O2  1E9 A 201      16.966  24.130  13.692  1.00 22.92    -0.200 OA
BRANCH  22  25
HETATM   25  N6  1E9 A 201      15.918  26.035  12.406  1.00 19.56    -0.264 N 
HETATM   26  H6  1E9 A 201      15.865  27.051  12.339  1.00  0.00     0.180 HD
BRANCH  25  27
HETATM   27  C42 1E9 A 201      15.806  25.285  11.245  1.00 20.00     0.136 A 
HETATM   28  C40 1E9 A 201      14.465  25.009  10.702  1.00 19.63     0.033 A 
HETATM   29  C38 1E9 A 201      13.227  25.427  11.212  1.00 19.30     0.019 A 
HETATM   30  C41 1E9 A 201      14.552  24.252   9.544  1.00 16.72     0.096 A 
HETATM   31  C39 1E9 A 201      12.071  25.039  10.498  1.00 19.11     0.030 A 
HETATM   32  C36 1E9 A 201      12.153  24.270   9.300  1.00 18.75     0.031 A 
HETATM   33  C37 1E9 A 201      13.421  23.851   8.818  1.00 16.19     0.055 A 
HETATM   34  S3  1E9 A 201      16.251  23.931   9.244  1.00 18.06     0.265 S 
HETATM   35  N5  1E9 A 201      16.784  24.776  10.567  1.00 17.57    -0.264 N 
HETATM   36  O3  1E9 A 201      16.519  22.498   9.479  1.00 20.15    -0.200 OA
HETATM   37  O4  1E9 A 201      16.690  24.540   7.980  1.00 17.05    -0.200 OA
HETATM   38  H5  1E9 A 201      17.766  24.882  10.818  1.00  0.00     0.180 HD
BRANCH  32  39
HETATM   39  N4  1E9 A 201      11.005  23.950   8.655  1.00 20.11    -0.377 N 
HETATM   40  C33 1E9 A 201      10.598  24.668   7.427  1.00 21.29     0.153 C 
HETATM   41  C32 1E9 A 201       9.580  23.873   6.564  1.00 19.39     0.292 C 
HETATM   42  N3  1E9 A 201       8.423  23.541   7.407  1.00 22.93     0.095 N 
HETATM   43  C35 1E9 A 201       8.890  22.606   8.445  1.00 21.59     0.292 C 
HETATM   44  C34 1E9 A 201       9.846  23.397   9.367  1.00 20.66     0.153 C 
BRANCH  42  45
HETATM   45  C31 1E9 A 201       7.322  22.977   6.613  1.00 24.32     0.312 C 
BRANCH  45  46
HETATM   46  C22 1E9 A 201       6.269  24.052   6.352  1.00 23.38    -0.019 A 
HETATM   47  C21 1E9 A 201       5.179  24.266   7.251  1.00 19.94    -0.018 A 
HETATM   48  C20 1E9 A 201       4.224  25.265   6.943  1.00 21.54     0.013 A 
HETATM   49  C19 1E9 A 201       4.322  26.024   5.753  1.00 24.24     0.001 A 
HETATM   50  C24 1E9 A 201       5.390  25.786   4.857  1.00 26.65     0.001 A 
HETATM   51  C23 1E9 A 201       6.359  24.805   5.153  1.00 23.38     0.010 A 
BRANCH  47  52
HETATM   52  C25 1E9 A 201       4.947  23.561   8.531  1.00 21.83    -0.025 A 
HETATM   53  C26 1E9 A 201       5.563  23.990   9.734  1.00 22.31     0.014 A 
HETATM   54  C27 1E9 A 201       5.301  23.333  10.958  1.00 21.61     0.024 A 
HETATM   55  C28 1E9 A 201       4.409  22.243  10.991  1.00 21.37     0.034 A 
HETATM   56  C29 1E9 A 201       3.789  21.798   9.803  1.00 18.64     0.024 A 
HETATM   57 CL1  1E9 A 201       4.078  21.441  12.485  1.00 25.72    -0.084 Cl
HETATM   58  C30 1E9 A 201       4.051  22.462   8.579  1.00 20.46     0.014 A 
ENDBRANCH  47  52
ENDBRANCH  45  46
ENDBRANCH  42  45
ENDBRANCH  32  39
ENDBRANCH  25  27
ENDBRANCH  22  25
ENDBRANCH  16  22
ENDBRANCH  11  13
ENDBRANCH   2  11
ENDBRANCH   1   2
BRANCH   1  59
HETATM   59  C3  1E9 A 201      21.351  31.448  18.534  1.00 33.21     0.273 C 
BRANCH  59  60
HETATM   60  N1  1E9 A 201      22.737  31.466  19.010  1.00 35.97     0.080 N 
HETATM   61  C6  1E9 A 201      23.635  31.195  17.892  1.00 32.92     0.309 C 
HETATM   62  C7  1E9 A 201      23.084  32.750  19.623  1.00 34.94     0.309 C 
ENDBRANCH  59  60
ENDBRANCH   1  59
TORSDOF 16
