REMARK VINA RESULT:    -9.113      6.414     13.906
REMARK INTER + INTRA:         -19.676
REMARK INTER:                 -16.706
REMARK INTRA:                  -2.970
REMARK UNBOUND:                -2.040
REMARK  16 active torsions:
REMARK  status: ('A' for Active; 'I' for Inactive)
REMARK    1  A    between atoms: C1_1  and  C2_4 
REMARK    2  A    between atoms: C1_1  and  C3_6 
REMARK    3  A    between atoms: C2_4  and  C4_9 
REMARK    4  A    between atoms: C2_4  and  N2_33 
REMARK    5  A    between atoms: C3_6  and  N1_14 
REMARK    6  A    between atoms: C4_9  and  S1_12 
REMARK    7  A    between atoms: S1_12  and  C5_13 
REMARK    8  A    between atoms: N2_33  and  C17_41 
REMARK    9  A    between atoms: C14_37  and  S2_44 
REMARK   10  A    between atoms: C16_40  and  N7_102 
REMARK   11  A    between atoms: S2_44  and  N6_97 
REMARK   12  A    between atoms: C21_51  and  C25_57 
REMARK   13  A    between atoms: C22_52  and  C31_67 
REMARK   14  A    between atoms: C31_67  and  N3_70 
REMARK   15  A    between atoms: N4_77  and  C36_84 
REMARK   16  A    between atoms: C42_96  and  N6_97 
ROOT
HETATM    1  C1  1E9 A 201       5.424  23.434   7.332  1.00 31.62     0.056 C 
ENDROOT
BRANCH   1   2
HETATM    2  C2  1E9 A 201       5.566  22.926   8.782  1.00 26.22     0.093 C 
BRANCH   2   3
HETATM    3  C4  1E9 A 201       4.177  22.862   9.475  1.00 25.82     0.104 C 
BRANCH   3   4
HETATM    4  S1  1E9 A 201       4.133  22.441  11.259  1.00 29.66    -0.128 SA
BRANCH   4   5
HETATM    5  C5  1E9 A 201       3.948  23.949  12.143  1.00 22.11     0.000 A 
HETATM    6  C8  1E9 A 201       3.910  25.171  11.448  1.00 22.15     0.018 A 
HETATM    7  C9  1E9 A 201       3.761  26.369  12.175  1.00 19.48     0.001 A 
HETATM    8  C10 1E9 A 201       3.638  26.335  13.579  1.00 17.77     0.000 A 
HETATM    9  C11 1E9 A 201       3.677  25.106  14.269  1.00 21.70     0.001 A 
HETATM   10  C12 1E9 A 201       3.827  23.906  13.547  1.00 20.86     0.018 A 
ENDBRANCH   4   5
ENDBRANCH   3   4
ENDBRANCH   2   3
BRANCH   2  11
HETATM   11  N2  1E9 A 201       6.512  23.727   9.559  1.00 23.64    -0.383 N 
HETATM   12  H2  1E9 A 201       6.190  24.078  10.461  1.00  0.00     0.160 HD
BRANCH  11  13
HETATM   13  C17 1E9 A 201       7.775  24.047   9.194  1.00 22.61     0.061 A 
HETATM   14  C16 1E9 A 201       8.102  25.301   8.599  1.00 23.52     0.130 A 
HETATM   15  C15 1E9 A 201       9.443  25.562   8.245  1.00 21.63     0.063 A 
HETATM   16  C14 1E9 A 201      10.440  24.609   8.493  1.00 23.02     0.082 A 
HETATM   17  C13 1E9 A 201      10.142  23.377   9.092  1.00 21.77     0.028 A 
HETATM   18  C18 1E9 A 201       8.811  23.106   9.432  1.00 19.95     0.033 A 
BRANCH  14  19
HETATM   19  N7  1E9 A 201       7.104  26.346   8.292  1.00 25.21    -0.113 N 
HETATM   20  O5  1E9 A 201       6.469  26.829   9.223  1.00 29.38    -0.532 OA
HETATM   21  O6  1E9 A 201       6.981  26.724   7.135  1.00 22.75    -0.532 OA
ENDBRANCH  14  19
BRANCH  16  22
HETATM   22  S2  1E9 A 201      12.114  25.015   8.049  1.00 22.41     0.264 S 
HETATM   23  O1  1E9 A 201      12.658  25.935   9.059  1.00 23.80    -0.200 OA
HETATM   24  O2  1E9 A 201      12.178  25.293   6.599  1.00 22.92    -0.200 OA
BRANCH  22  25
HETATM   25  N6  1E9 A 201      13.027  23.601   8.271  1.00 19.56    -0.264 N 
HETATM   26  H6  1E9 A 201      13.086  23.199   9.206  1.00  0.00     0.180 HD
BRANCH  25  27
HETATM   27  C42 1E9 A 201      13.697  22.970   7.232  1.00 20.00     0.136 A 
HETATM   28  C40 1E9 A 201      15.030  22.398   7.488  1.00 19.63     0.033 A 
HETATM   29  C38 1E9 A 201      15.747  22.391   8.693  1.00 19.30     0.019 A 
HETATM   30  C41 1E9 A 201      15.539  21.811   6.340  1.00 16.72     0.096 A 
HETATM   31  C39 1E9 A 201      17.014  21.765   8.688  1.00 19.11     0.030 A 
HETATM   32  C36 1E9 A 201      17.540  21.149   7.514  1.00 18.75     0.031 A 
HETATM   33  C37 1E9 A 201      16.794  21.186   6.306  1.00 16.19     0.055 A 
HETATM   34  S3  1E9 A 201      14.359  22.032   5.061  1.00 18.06     0.265 S 
HETATM   35  N5  1E9 A 201      13.268  22.831   6.020  1.00 17.57    -0.264 N 
HETATM   36  O3  1E9 A 201      14.892  22.995   4.075  1.00 20.15    -0.200 OA
HETATM   37  O4  1E9 A 201      13.843  20.740   4.587  1.00 17.05    -0.200 OA
HETATM   38  H5  1E9 A 201      12.365  23.173   5.693  1.00  0.00     0.180 HD
BRANCH  32  39
HETATM   39  N4  1E9 A 201      18.752  20.549   7.583  1.00 20.11    -0.377 N 
HETATM   40  C33 1E9 A 201      19.193  19.603   6.536  1.00 21.29     0.153 C 
HETATM   41  C32 1E9 A 201      20.734  19.414   6.494  1.00 19.39     0.292 C 
HETATM   42  N3  1E9 A 201      21.182  18.992   7.828  1.00 22.93     0.095 N 
HETATM   43  C35 1E9 A 201      20.939  20.116   8.748  1.00 21.59     0.292 C 
HETATM   44  C34 1E9 A 201      19.405  20.273   8.870  1.00 20.66     0.153 C 
BRANCH  42  45
HETATM   45  C31 1E9 A 201      22.595  18.584   7.818  1.00 24.32     0.312 C 
BRANCH  45  46
HETATM   46  C22 1E9 A 201      22.855  17.588   8.946  1.00 23.38    -0.019 A 
HETATM   47  C21 1E9 A 201      22.213  16.312   8.980  1.00 19.94    -0.018 A 
HETATM   48  C20 1E9 A 201      22.481  15.440  10.065  1.00 21.54     0.013 A 
HETATM   49  C19 1E9 A 201      23.344  15.829  11.115  1.00 24.24     0.001 A 
HETATM   50  C24 1E9 A 201      23.954  17.105  11.084  1.00 26.65     0.001 A 
HETATM   51  C23 1E9 A 201      23.711  17.981  10.006  1.00 23.38     0.010 A 
BRANCH  47  52
HETATM   52  C25 1E9 A 201      21.295  15.764   7.958  1.00 21.83    -0.025 A 
HETATM   53  C26 1E9 A 201      19.889  15.778   8.141  1.00 22.31     0.014 A 
HETATM   54  C27 1E9 A 201      19.021  15.288   7.138  1.00 21.61     0.024 A 
HETATM   55  C28 1E9 A 201      19.554  14.785   5.936  1.00 21.37     0.034 A 
HETATM   56  C29 1E9 A 201      20.952  14.759   5.736  1.00 18.64     0.024 A 
HETATM   57 CL1  1E9 A 201      18.499  14.193   4.703  1.00 25.72    -0.084 Cl
HETATM   58  C30 1E9 A 201      21.818  15.254   6.741  1.00 20.46     0.014 A 
ENDBRANCH  47  52
ENDBRANCH  45  46
ENDBRANCH  42  45
ENDBRANCH  32  39
ENDBRANCH  25  27
ENDBRANCH  22  25
ENDBRANCH  16  22
ENDBRANCH  11  13
ENDBRANCH   2  11
ENDBRANCH   1   2
BRANCH   1  59
HETATM   59  C3  1E9 A 201       6.309  22.727   6.289  1.00 33.21     0.273 C 
BRANCH  59  60
HETATM   60  N1  1E9 A 201       6.155  21.273   6.395  1.00 35.97     0.080 N 
HETATM   61  C6  1E9 A 201       4.864  20.883   5.837  1.00 32.92     0.309 C 
HETATM   62  C7  1E9 A 201       7.228  20.561   5.699  1.00 34.94     0.309 C 
ENDBRANCH  59  60
ENDBRANCH   1  59
TORSDOF 16
