MODEL 1
REMARK VINA RESULT:    -9.562      0.000      0.000
REMARK INTER + INTRA:         -20.546
REMARK INTER:                 -17.654
REMARK INTRA:                  -2.892
REMARK UNBOUND:                -2.040
REMARK  16 active torsions:
REMARK  status: ('A' for Active; 'I' for Inactive)
REMARK    1  A    between atoms: C1_1  and  C2_4 
REMARK    2  A    between atoms: C1_1  and  C3_6 
REMARK    3  A    between atoms: C2_4  and  C4_9 
REMARK    4  A    between atoms: C2_4  and  N2_33 
REMARK    5  A    between atoms: C3_6  and  N1_14 
REMARK    6  A    between atoms: C4_9  and  S1_12 
REMARK    7  A    between atoms: S1_12  and  C5_13 
REMARK    8  A    between atoms: N2_33  and  C17_41 
REMARK    9  A    between atoms: C14_37  and  S2_44 
REMARK   10  A    between atoms: C16_40  and  N7_102 
REMARK   11  A    between atoms: S2_44  and  N6_97 
REMARK   12  A    between atoms: C21_51  and  C25_57 
REMARK   13  A    between atoms: C22_52  and  C31_67 
REMARK   14  A    between atoms: C31_67  and  N3_70 
REMARK   15  A    between atoms: N4_77  and  C36_84 
REMARK   16  A    between atoms: C42_96  and  N6_97 
ROOT
HETATM    1  C1  1E9 A 201      15.439  27.309  14.580  1.00 31.62     0.056 C 
ENDROOT
BRANCH   1   2
HETATM    2  C2  1E9 A 201      16.800  26.583  14.529  1.00 26.22     0.093 C 
BRANCH   2   3
HETATM    3  C4  1E9 A 201      17.572  26.781  15.862  1.00 25.82     0.104 C 
BRANCH   3   4
HETATM    4  S1  1E9 A 201      19.058  27.855  15.835  1.00 29.66    -0.128 SA
BRANCH   4   5
HETATM    5  C5  1E9 A 201      19.428  28.269  17.502  1.00 22.11     0.000 A 
HETATM    6  C8  1E9 A 201      20.390  29.256  17.786  1.00 22.15     0.018 A 
HETATM    7  C9  1E9 A 201      20.672  29.573  19.129  1.00 19.48     0.001 A 
HETATM    8  C10 1E9 A 201      19.986  28.917  20.172  1.00 17.77     0.000 A 
HETATM    9  C11 1E9 A 201      19.023  27.929  19.880  1.00 21.70     0.001 A 
HETATM   10  C12 1E9 A 201      18.739  27.606  18.539  1.00 20.86     0.018 A 
ENDBRANCH   4   5
ENDBRANCH   3   4
ENDBRANCH   2   3
BRANCH   2  11
HETATM   11  N2  1E9 A 201      17.606  26.999  13.381  1.00 23.64    -0.383 N 
HETATM   12  H2  1E9 A 201      18.113  27.880  13.466  1.00  0.00     0.160 HD
BRANCH  11  13
HETATM   13  C17 1E9 A 201      17.743  26.323  12.216  1.00 22.61     0.061 A 
HETATM   14  C16 1E9 A 201      18.388  26.890  11.078  1.00 23.52     0.130 A 
HETATM   15  C15 1E9 A 201      18.493  26.124   9.897  1.00 21.63     0.063 A 
HETATM   16  C14 1E9 A 201      17.988  24.817   9.854  1.00 23.02     0.082 A 
HETATM   17  C13 1E9 A 201      17.366  24.235  10.967  1.00 21.77     0.028 A 
HETATM   18  C18 1E9 A 201      17.246  24.996  12.137  1.00 19.95     0.033 A 
BRANCH  14  19
HETATM   19  N7  1E9 A 201      18.928  28.265  11.043  1.00 25.21    -0.113 N 
HETATM   20  O5  1E9 A 201      18.350  29.129  11.695  1.00 29.38    -0.532 OA
HETATM   21  O6  1E9 A 201      19.951  28.483  10.409  1.00 22.75    -0.532 OA
ENDBRANCH  14  19
BRANCH  16  22
HETATM   22  S2  1E9 A 201      18.180  23.896   8.344  1.00 22.41     0.264 S 
HETATM   23  O1  1E9 A 201      18.780  22.592   8.663  1.00 23.80    -0.200 OA
HETATM   24  O2  1E9 A 201      18.719  24.788   7.296  1.00 22.92    -0.200 OA
BRANCH  22  25
HETATM   25  N6  1E9 A 201      16.615  23.493   7.823  1.00 19.56    -0.264 N 
HETATM   26  H6  1E9 A 201      16.397  22.514   7.644  1.00  0.00     0.180 HD
BRANCH  25  27
HETATM   27  C42 1E9 A 201      15.621  24.442   7.632  1.00 20.00     0.136 A 
HETATM   28  C40 1E9 A 201      14.213  24.038   7.785  1.00 19.63     0.033 A 
HETATM   29  C38 1E9 A 201      13.712  22.773   8.124  1.00 19.30     0.019 A 
HETATM   30  C41 1E9 A 201      13.368  25.114   7.558  1.00 16.72     0.096 A 
HETATM   31  C39 1E9 A 201      12.308  22.639   8.220  1.00 19.11     0.030 A 
HETATM   32  C36 1E9 A 201      11.434  23.743   7.999  1.00 18.75     0.031 A 
HETATM   33  C37 1E9 A 201      11.973  25.008   7.643  1.00 16.19     0.055 A 
HETATM   34  S3  1E9 A 201      14.367  26.500   7.159  1.00 18.06     0.265 S 
HETATM   35  N5  1E9 A 201      15.801  25.683   7.314  1.00 17.57    -0.264 N 
HETATM   36  O3  1E9 A 201      14.182  26.833   5.732  1.00 20.15    -0.200 OA
HETATM   37  O4  1E9 A 201      14.221  27.564   8.163  1.00 17.05    -0.200 OA
HETATM   38  H5  1E9 A 201      16.717  26.108   7.175  1.00  0.00     0.180 HD
BRANCH  32  39
HETATM   39  N4  1E9 A 201      10.099  23.549   8.128  1.00 20.11    -0.377 N 
HETATM   40  C33 1E9 A 201       9.296  23.020   7.004  1.00 21.29     0.153 C 
HETATM   41  C32 1E9 A 201       7.947  22.398   7.457  1.00 19.39     0.292 C 
HETATM   42  N3  1E9 A 201       7.207  23.411   8.223  1.00 22.93     0.095 N 
HETATM   43  C35 1E9 A 201       7.967  23.669   9.457  1.00 21.59     0.292 C 
HETATM   44  C34 1E9 A 201       9.284  24.364   9.038  1.00 20.66     0.153 C 
BRANCH  42  45
HETATM   45  C31 1E9 A 201       5.832  22.975   8.503  1.00 24.32     0.312 C 
BRANCH  45  46
HETATM   46  C22 1E9 A 201       4.840  23.986   7.931  1.00 23.38    -0.019 A 
HETATM   47  C21 1E9 A 201       4.044  24.816   8.779  1.00 19.94    -0.018 A 
HETATM   48  C20 1E9 A 201       3.129  25.720   8.186  1.00 21.54     0.013 A 
HETATM   49  C19 1E9 A 201       2.977  25.787   6.782  1.00 24.24     0.001 A 
HETATM   50  C24 1E9 A 201       3.751  24.942   5.953  1.00 26.65     0.001 A 
HETATM   51  C23 1E9 A 201       4.678  24.045   6.523  1.00 23.38     0.010 A 
BRANCH  47  52
HETATM   52  C25 1E9 A 201       4.095  24.866  10.256  1.00 21.83    -0.025 A 
HETATM   53  C26 1E9 A 201       3.732  26.037  10.970  1.00 22.31     0.014 A 
HETATM   54  C27 1E9 A 201       3.747  26.058  12.384  1.00 21.61     0.024 A 
HETATM   55  C28 1E9 A 201       4.116  24.902  13.098  1.00 21.37     0.034 A 
HETATM   56  C29 1E9 A 201       4.485  23.728  12.405  1.00 18.64     0.024 A 
HETATM   57 CL1  1E9 A 201       4.127  24.919  14.825  1.00 25.72    -0.084 Cl
HETATM   58  C30 1E9 A 201       4.466  23.709  10.989  1.00 20.46     0.014 A 
ENDBRANCH  47  52
ENDBRANCH  45  46
ENDBRANCH  42  45
ENDBRANCH  32  39
ENDBRANCH  25  27
ENDBRANCH  22  25
ENDBRANCH  16  22
ENDBRANCH  11  13
ENDBRANCH   2  11
ENDBRANCH   1   2
BRANCH   1  59
HETATM   59  C3  1E9 A 201      14.261  26.558  13.932  1.00 33.21     0.273 C 
BRANCH  59  60
HETATM   60  N1  1E9 A 201      13.725  27.330  12.806  1.00 35.97     0.080 N 
HETATM   61  C6  1E9 A 201      14.257  28.687  12.855  1.00 32.92     0.309 C 
HETATM   62  C7  1E9 A 201      14.058  26.715  11.520  1.00 34.94     0.309 C 
ENDBRANCH  59  60
ENDBRANCH   1  59
TORSDOF 16
ENDMDL
MODEL 2
REMARK VINA RESULT:    -9.489      2.244      3.338
REMARK INTER + INTRA:         -20.405
REMARK INTER:                 -17.735
REMARK INTRA:                  -2.670
REMARK UNBOUND:                -2.040
REMARK  16 active torsions:
REMARK  status: ('A' for Active; 'I' for Inactive)
REMARK    1  A    between atoms: C1_1  and  C2_4 
REMARK    2  A    between atoms: C1_1  and  C3_6 
REMARK    3  A    between atoms: C2_4  and  C4_9 
REMARK    4  A    between atoms: C2_4  and  N2_33 
REMARK    5  A    between atoms: C3_6  and  N1_14 
REMARK    6  A    between atoms: C4_9  and  S1_12 
REMARK    7  A    between atoms: S1_12  and  C5_13 
REMARK    8  A    between atoms: N2_33  and  C17_41 
REMARK    9  A    between atoms: C14_37  and  S2_44 
REMARK   10  A    between atoms: C16_40  and  N7_102 
REMARK   11  A    between atoms: S2_44  and  N6_97 
REMARK   12  A    between atoms: C21_51  and  C25_57 
REMARK   13  A    between atoms: C22_52  and  C31_67 
REMARK   14  A    between atoms: C31_67  and  N3_70 
REMARK   15  A    between atoms: N4_77  and  C36_84 
REMARK   16  A    between atoms: C42_96  and  N6_97 
ROOT
HETATM    1  C1  1E9 A 201      15.279  26.514  14.727  1.00 31.62     0.056 C 
ENDROOT
BRANCH   1   2
HETATM    2  C2  1E9 A 201      16.805  26.517  14.956  1.00 26.22     0.093 C 
BRANCH   2   3
HETATM    3  C4  1E9 A 201      17.196  27.591  16.006  1.00 25.82     0.104 C 
BRANCH   3   4
HETATM    4  S1  1E9 A 201      17.953  29.146  15.395  1.00 29.66    -0.128 SA
BRANCH   4   5
HETATM    5  C5  1E9 A 201      19.568  29.240  16.081  1.00 22.11     0.000 A 
HETATM    6  C8  1E9 A 201      20.029  30.448  16.633  1.00 22.15     0.018 A 
HETATM    7  C9  1E9 A 201      21.327  30.503  17.178  1.00 19.48     0.001 A 
HETATM    8  C10 1E9 A 201      22.144  29.353  17.180  1.00 17.77     0.000 A 
HETATM    9  C11 1E9 A 201      21.675  28.145  16.624  1.00 21.70     0.001 A 
HETATM   10  C12 1E9 A 201      20.379  28.086  16.076  1.00 20.86     0.018 A 
ENDBRANCH   4   5
ENDBRANCH   3   4
ENDBRANCH   2   3
BRANCH   2  11
HETATM   11  N2  1E9 A 201      17.551  26.694  13.710  1.00 23.64    -0.383 N 
HETATM   12  H2  1E9 A 201      18.136  27.527  13.636  1.00  0.00     0.160 HD
BRANCH  11  13
HETATM   13  C17 1E9 A 201      17.538  25.858  12.646  1.00 22.61     0.061 A 
HETATM   14  C16 1E9 A 201      18.058  26.236  11.373  1.00 23.52     0.130 A 
HETATM   15  C15 1E9 A 201      18.009  25.309  10.310  1.00 21.63     0.063 A 
HETATM   16  C14 1E9 A 201      17.477  24.028  10.512  1.00 23.02     0.082 A 
HETATM   17  C13 1E9 A 201      16.976  23.631  11.760  1.00 21.77     0.028 A 
HETATM   18  C18 1E9 A 201      17.008  24.552  12.814  1.00 19.95     0.033 A 
BRANCH  14  19
HETATM   19  N7  1E9 A 201      18.618  27.572  11.082  1.00 25.21    -0.113 N 
HETATM   20  O5  1E9 A 201      19.450  28.031  11.858  1.00 29.38    -0.532 OA
HETATM   21  O6  1E9 A 201      18.271  28.148  10.060  1.00 22.75    -0.532 OA
ENDBRANCH  14  19
BRANCH  16  22
HETATM   22  S2  1E9 A 201      17.474  22.899   9.138  1.00 22.41     0.264 S 
HETATM   23  O1  1E9 A 201      17.676  21.535   9.651  1.00 23.80    -0.200 OA
HETATM   24  O2  1E9 A 201      18.283  23.467   8.039  1.00 22.92    -0.200 OA
BRANCH  22  25
HETATM   25  N6  1E9 A 201      15.883  22.865   8.546  1.00 19.56    -0.264 N 
HETATM   26  H6  1E9 A 201      15.462  21.962   8.327  1.00  0.00     0.180 HD
BRANCH  25  27
HETATM   27  C42 1E9 A 201      15.132  24.014   8.346  1.00 20.00     0.136 A 
HETATM   28  C40 1E9 A 201      13.667  23.938   8.472  1.00 19.63     0.033 A 
HETATM   29  C38 1E9 A 201      12.887  22.817   8.791  1.00 19.30     0.019 A 
HETATM   30  C41 1E9 A 201      13.091  25.178   8.241  1.00 16.72     0.096 A 
HETATM   31  C39 1E9 A 201      11.487  23.003   8.863  1.00 19.11     0.030 A 
HETATM   32  C36 1E9 A 201      10.889  24.277   8.638  1.00 18.75     0.031 A 
HETATM   33  C37 1E9 A 201      11.706  25.390   8.302  1.00 16.19     0.055 A 
HETATM   34  S3  1E9 A 201      14.384  26.305   7.872  1.00 18.06     0.265 S 
HETATM   35  N5  1E9 A 201      15.593  25.184   8.043  1.00 17.57    -0.264 N 
HETATM   36  O3  1E9 A 201      14.305  26.678   6.445  1.00 20.15    -0.200 OA
HETATM   37  O4  1E9 A 201      14.464  27.369   8.883  1.00 17.05    -0.200 OA
HETATM   38  H5  1E9 A 201      16.584  25.392   7.923  1.00  0.00     0.180 HD
BRANCH  32  39
HETATM   39  N4  1E9 A 201       9.543  24.389   8.742  1.00 20.11    -0.377 N 
HETATM   40  C33 1E9 A 201       8.870  25.692   8.542  1.00 21.29     0.153 C 
HETATM   41  C32 1E9 A 201       7.362  25.553   8.198  1.00 19.39     0.292 C 
HETATM   42  N3  1E9 A 201       6.718  24.768   9.261  1.00 22.93     0.095 N 
HETATM   43  C35 1E9 A 201       7.273  23.406   9.197  1.00 21.59     0.292 C 
HETATM   44  C34 1E9 A 201       8.759  23.504   9.614  1.00 20.66     0.153 C 
BRANCH  42  45
HETATM   45  C31 1E9 A 201       5.255  24.775   9.123  1.00 24.32     0.312 C 
BRANCH  45  46
HETATM   46  C22 1E9 A 201       4.656  23.604   9.900  1.00 23.38    -0.019 A 
HETATM   47  C21 1E9 A 201       4.114  22.462   9.232  1.00 19.94    -0.018 A 
HETATM   48  C20 1E9 A 201       3.555  21.417  10.009  1.00 21.54     0.013 A 
HETATM   49  C19 1E9 A 201       3.502  21.507  11.419  1.00 24.24     0.001 A 
HETATM   50  C24 1E9 A 201       4.018  22.653  12.068  1.00 26.65     0.001 A 
HETATM   51  C23 1E9 A 201       4.591  23.698  11.313  1.00 23.38     0.010 A 
BRANCH  47  52
HETATM   52  C25 1E9 A 201       4.103  22.222   7.772  1.00 21.83    -0.025 A 
HETATM   53  C26 1E9 A 201       3.582  23.182   6.869  1.00 22.31     0.014 A 
HETATM   54  C27 1E9 A 201       3.615  22.958   5.473  1.00 21.61     0.024 A 
HETATM   55  C28 1E9 A 201       4.179  21.771   4.968  1.00 21.37     0.034 A 
HETATM   56  C29 1E9 A 201       4.700  20.800   5.852  1.00 18.64     0.024 A 
HETATM   57 CL1  1E9 A 201       4.230  21.495   3.263  1.00 25.72    -0.084 Cl
HETATM   58  C30 1E9 A 201       4.669  21.030   7.250  1.00 20.46     0.014 A 
ENDBRANCH  47  52
ENDBRANCH  45  46
ENDBRANCH  42  45
ENDBRANCH  32  39
ENDBRANCH  25  27
ENDBRANCH  22  25
ENDBRANCH  16  22
ENDBRANCH  11  13
ENDBRANCH   2  11
ENDBRANCH   1   2
BRANCH   1  59
HETATM   59  C3  1E9 A 201      14.735  27.659  13.852  1.00 33.21     0.273 C 
BRANCH  59  60
HETATM   60  N1  1E9 A 201      14.176  27.124  12.607  1.00 35.97     0.080 N 
HETATM   61  C6  1E9 A 201      13.580  25.818  12.867  1.00 32.92     0.309 C 
HETATM   62  C7  1E9 A 201      13.170  28.021  12.035  1.00 34.94     0.309 C 
ENDBRANCH  59  60
ENDBRANCH   1  59
TORSDOF 16
ENDMDL
MODEL 3
REMARK VINA RESULT:    -9.113      6.414     13.906
REMARK INTER + INTRA:         -19.676
REMARK INTER:                 -16.706
REMARK INTRA:                  -2.970
REMARK UNBOUND:                -2.040
REMARK  16 active torsions:
REMARK  status: ('A' for Active; 'I' for Inactive)
REMARK    1  A    between atoms: C1_1  and  C2_4 
REMARK    2  A    between atoms: C1_1  and  C3_6 
REMARK    3  A    between atoms: C2_4  and  C4_9 
REMARK    4  A    between atoms: C2_4  and  N2_33 
REMARK    5  A    between atoms: C3_6  and  N1_14 
REMARK    6  A    between atoms: C4_9  and  S1_12 
REMARK    7  A    between atoms: S1_12  and  C5_13 
REMARK    8  A    between atoms: N2_33  and  C17_41 
REMARK    9  A    between atoms: C14_37  and  S2_44 
REMARK   10  A    between atoms: C16_40  and  N7_102 
REMARK   11  A    between atoms: S2_44  and  N6_97 
REMARK   12  A    between atoms: C21_51  and  C25_57 
REMARK   13  A    between atoms: C22_52  and  C31_67 
REMARK   14  A    between atoms: C31_67  and  N3_70 
REMARK   15  A    between atoms: N4_77  and  C36_84 
REMARK   16  A    between atoms: C42_96  and  N6_97 
ROOT
HETATM    1  C1  1E9 A 201       5.424  23.434   7.332  1.00 31.62     0.056 C 
ENDROOT
BRANCH   1   2
HETATM    2  C2  1E9 A 201       5.566  22.926   8.782  1.00 26.22     0.093 C 
BRANCH   2   3
HETATM    3  C4  1E9 A 201       4.177  22.862   9.475  1.00 25.82     0.104 C 
BRANCH   3   4
HETATM    4  S1  1E9 A 201       4.133  22.441  11.259  1.00 29.66    -0.128 SA
BRANCH   4   5
HETATM    5  C5  1E9 A 201       3.948  23.949  12.143  1.00 22.11     0.000 A 
HETATM    6  C8  1E9 A 201       3.910  25.171  11.448  1.00 22.15     0.018 A 
HETATM    7  C9  1E9 A 201       3.761  26.369  12.175  1.00 19.48     0.001 A 
HETATM    8  C10 1E9 A 201       3.638  26.335  13.579  1.00 17.77     0.000 A 
HETATM    9  C11 1E9 A 201       3.677  25.106  14.269  1.00 21.70     0.001 A 
HETATM   10  C12 1E9 A 201       3.827  23.906  13.547  1.00 20.86     0.018 A 
ENDBRANCH   4   5
ENDBRANCH   3   4
ENDBRANCH   2   3
BRANCH   2  11
HETATM   11  N2  1E9 A 201       6.512  23.727   9.559  1.00 23.64    -0.383 N 
HETATM   12  H2  1E9 A 201       6.190  24.078  10.461  1.00  0.00     0.160 HD
BRANCH  11  13
HETATM   13  C17 1E9 A 201       7.775  24.047   9.194  1.00 22.61     0.061 A 
HETATM   14  C16 1E9 A 201       8.102  25.301   8.599  1.00 23.52     0.130 A 
HETATM   15  C15 1E9 A 201       9.443  25.562   8.245  1.00 21.63     0.063 A 
HETATM   16  C14 1E9 A 201      10.440  24.609   8.493  1.00 23.02     0.082 A 
HETATM   17  C13 1E9 A 201      10.142  23.377   9.092  1.00 21.77     0.028 A 
HETATM   18  C18 1E9 A 201       8.811  23.106   9.432  1.00 19.95     0.033 A 
BRANCH  14  19
HETATM   19  N7  1E9 A 201       7.104  26.346   8.292  1.00 25.21    -0.113 N 
HETATM   20  O5  1E9 A 201       6.469  26.829   9.223  1.00 29.38    -0.532 OA
HETATM   21  O6  1E9 A 201       6.981  26.724   7.135  1.00 22.75    -0.532 OA
ENDBRANCH  14  19
BRANCH  16  22
HETATM   22  S2  1E9 A 201      12.114  25.015   8.049  1.00 22.41     0.264 S 
HETATM   23  O1  1E9 A 201      12.658  25.935   9.059  1.00 23.80    -0.200 OA
HETATM   24  O2  1E9 A 201      12.178  25.293   6.599  1.00 22.92    -0.200 OA
BRANCH  22  25
HETATM   25  N6  1E9 A 201      13.027  23.601   8.271  1.00 19.56    -0.264 N 
HETATM   26  H6  1E9 A 201      13.086  23.199   9.206  1.00  0.00     0.180 HD
BRANCH  25  27
HETATM   27  C42 1E9 A 201      13.697  22.970   7.232  1.00 20.00     0.136 A 
HETATM   28  C40 1E9 A 201      15.030  22.398   7.488  1.00 19.63     0.033 A 
HETATM   29  C38 1E9 A 201      15.747  22.391   8.693  1.00 19.30     0.019 A 
HETATM   30  C41 1E9 A 201      15.539  21.811   6.340  1.00 16.72     0.096 A 
HETATM   31  C39 1E9 A 201      17.014  21.765   8.688  1.00 19.11     0.030 A 
HETATM   32  C36 1E9 A 201      17.540  21.149   7.514  1.00 18.75     0.031 A 
HETATM   33  C37 1E9 A 201      16.794  21.186   6.306  1.00 16.19     0.055 A 
HETATM   34  S3  1E9 A 201      14.359  22.032   5.061  1.00 18.06     0.265 S 
HETATM   35  N5  1E9 A 201      13.268  22.831   6.020  1.00 17.57    -0.264 N 
HETATM   36  O3  1E9 A 201      14.892  22.995   4.075  1.00 20.15    -0.200 OA
HETATM   37  O4  1E9 A 201      13.843  20.740   4.587  1.00 17.05    -0.200 OA
HETATM   38  H5  1E9 A 201      12.365  23.173   5.693  1.00  0.00     0.180 HD
BRANCH  32  39
HETATM   39  N4  1E9 A 201      18.752  20.549   7.583  1.00 20.11    -0.377 N 
HETATM   40  C33 1E9 A 201      19.193  19.603   6.536  1.00 21.29     0.153 C 
HETATM   41  C32 1E9 A 201      20.734  19.414   6.494  1.00 19.39     0.292 C 
HETATM   42  N3  1E9 A 201      21.182  18.992   7.828  1.00 22.93     0.095 N 
HETATM   43  C35 1E9 A 201      20.939  20.116   8.748  1.00 21.59     0.292 C 
HETATM   44  C34 1E9 A 201      19.405  20.273   8.870  1.00 20.66     0.153 C 
BRANCH  42  45
HETATM   45  C31 1E9 A 201      22.595  18.584   7.818  1.00 24.32     0.312 C 
BRANCH  45  46
HETATM   46  C22 1E9 A 201      22.855  17.588   8.946  1.00 23.38    -0.019 A 
HETATM   47  C21 1E9 A 201      22.213  16.312   8.980  1.00 19.94    -0.018 A 
HETATM   48  C20 1E9 A 201      22.481  15.440  10.065  1.00 21.54     0.013 A 
HETATM   49  C19 1E9 A 201      23.344  15.829  11.115  1.00 24.24     0.001 A 
HETATM   50  C24 1E9 A 201      23.954  17.105  11.084  1.00 26.65     0.001 A 
HETATM   51  C23 1E9 A 201      23.711  17.981  10.006  1.00 23.38     0.010 A 
BRANCH  47  52
HETATM   52  C25 1E9 A 201      21.295  15.764   7.958  1.00 21.83    -0.025 A 
HETATM   53  C26 1E9 A 201      19.889  15.778   8.141  1.00 22.31     0.014 A 
HETATM   54  C27 1E9 A 201      19.021  15.288   7.138  1.00 21.61     0.024 A 
HETATM   55  C28 1E9 A 201      19.554  14.785   5.936  1.00 21.37     0.034 A 
HETATM   56  C29 1E9 A 201      20.952  14.759   5.736  1.00 18.64     0.024 A 
HETATM   57 CL1  1E9 A 201      18.499  14.193   4.703  1.00 25.72    -0.084 Cl
HETATM   58  C30 1E9 A 201      21.818  15.254   6.741  1.00 20.46     0.014 A 
ENDBRANCH  47  52
ENDBRANCH  45  46
ENDBRANCH  42  45
ENDBRANCH  32  39
ENDBRANCH  25  27
ENDBRANCH  22  25
ENDBRANCH  16  22
ENDBRANCH  11  13
ENDBRANCH   2  11
ENDBRANCH   1   2
BRANCH   1  59
HETATM   59  C3  1E9 A 201       6.309  22.727   6.289  1.00 33.21     0.273 C 
BRANCH  59  60
HETATM   60  N1  1E9 A 201       6.155  21.273   6.395  1.00 35.97     0.080 N 
HETATM   61  C6  1E9 A 201       4.864  20.883   5.837  1.00 32.92     0.309 C 
HETATM   62  C7  1E9 A 201       7.228  20.561   5.699  1.00 34.94     0.309 C 
ENDBRANCH  59  60
ENDBRANCH   1  59
TORSDOF 16
ENDMDL
MODEL 4
REMARK VINA RESULT:    -9.109      5.100      8.145
REMARK INTER + INTRA:         -19.670
REMARK INTER:                 -16.716
REMARK INTRA:                  -2.954
REMARK UNBOUND:                -2.040
REMARK  16 active torsions:
REMARK  status: ('A' for Active; 'I' for Inactive)
REMARK    1  A    between atoms: C1_1  and  C2_4 
REMARK    2  A    between atoms: C1_1  and  C3_6 
REMARK    3  A    between atoms: C2_4  and  C4_9 
REMARK    4  A    between atoms: C2_4  and  N2_33 
REMARK    5  A    between atoms: C3_6  and  N1_14 
REMARK    6  A    between atoms: C4_9  and  S1_12 
REMARK    7  A    between atoms: S1_12  and  C5_13 
REMARK    8  A    between atoms: N2_33  and  C17_41 
REMARK    9  A    between atoms: C14_37  and  S2_44 
REMARK   10  A    between atoms: C16_40  and  N7_102 
REMARK   11  A    between atoms: S2_44  and  N6_97 
REMARK   12  A    between atoms: C21_51  and  C25_57 
REMARK   13  A    between atoms: C22_52  and  C31_67 
REMARK   14  A    between atoms: C31_67  and  N3_70 
REMARK   15  A    between atoms: N4_77  and  C36_84 
REMARK   16  A    between atoms: C42_96  and  N6_97 
ROOT
HETATM    1  C1  1E9 A 201      21.181  18.200   4.835  1.00 31.62     0.056 C 
ENDROOT
BRANCH   1   2
HETATM    2  C2  1E9 A 201      20.875  17.876   6.313  1.00 26.22     0.093 C 
BRANCH   2   3
HETATM    3  C4  1E9 A 201      21.224  16.397   6.630  1.00 25.82     0.104 C 
BRANCH   3   4
HETATM    4  S1  1E9 A 201      22.996  15.957   6.804  1.00 29.66    -0.128 SA
BRANCH   4   5
HETATM    5  C5  1E9 A 201      23.597  16.786   8.232  1.00 22.11     0.000 A 
HETATM    6  C8  1E9 A 201      23.692  16.101   9.456  1.00 22.15     0.018 A 
HETATM    7  C9  1E9 A 201      24.177  16.783  10.589  1.00 19.48     0.001 A 
HETATM    8  C10 1E9 A 201      24.573  18.133  10.488  1.00 17.77     0.000 A 
HETATM    9  C11 1E9 A 201      24.474  18.814   9.257  1.00 21.70     0.001 A 
HETATM   10  C12 1E9 A 201      23.989  18.137   8.122  1.00 20.86     0.018 A 
ENDBRANCH   4   5
ENDBRANCH   3   4
ENDBRANCH   2   3
BRANCH   2  11
HETATM   11  N2  1E9 A 201      19.490  18.185   6.671  1.00 23.64    -0.383 N 
HETATM   12  H2  1E9 A 201      18.773  17.536   6.348  1.00  0.00     0.160 HD
BRANCH  11  13
HETATM   13  C17 1E9 A 201      19.071  19.251   7.392  1.00 22.61     0.061 A 
HETATM   14  C16 1E9 A 201      19.237  19.328   8.806  1.00 23.52     0.130 A 
HETATM   15  C15 1E9 A 201      18.774  20.473   9.489  1.00 21.63     0.063 A 
HETATM   16  C14 1E9 A 201      18.179  21.527   8.783  1.00 23.02     0.082 A 
HETATM   17  C13 1E9 A 201      18.022  21.479   7.390  1.00 21.77     0.028 A 
HETATM   18  C18 1E9 A 201      18.466  20.339   6.709  1.00 19.95     0.033 A 
BRANCH  14  19
HETATM   19  N7  1E9 A 201      19.837  18.250   9.619  1.00 25.21    -0.113 N 
HETATM   20  O5  1E9 A 201      19.182  17.228   9.796  1.00 29.38    -0.532 OA
HETATM   21  O6  1E9 A 201      20.975  18.394  10.044  1.00 22.75    -0.532 OA
ENDBRANCH  14  19
BRANCH  16  22
HETATM   22  S2  1E9 A 201      17.646  22.953   9.702  1.00 22.41     0.264 S 
HETATM   23  O1  1E9 A 201      18.516  24.088   9.355  1.00 23.80    -0.200 OA
HETATM   24  O2  1E9 A 201      17.369  22.556  11.098  1.00 22.92    -0.200 OA
BRANCH  22  25
HETATM   25  N6  1E9 A 201      16.139  23.403   9.061  1.00 19.56    -0.264 N 
HETATM   26  H6  1E9 A 201      15.855  23.014   8.162  1.00  0.00     0.180 HD
BRANCH  25  27
HETATM   27  C42 1E9 A 201      15.278  24.276   9.710  1.00 20.00     0.136 A 
HETATM   28  C40 1E9 A 201      13.845  24.245   9.374  1.00 19.63     0.033 A 
HETATM   29  C38 1E9 A 201      13.194  23.409   8.455  1.00 19.30     0.019 A 
HETATM   30  C41 1E9 A 201      13.147  25.182  10.120  1.00 16.72     0.096 A 
HETATM   31  C39 1E9 A 201      11.796  23.566   8.316  1.00 19.11     0.030 A 
HETATM   32  C36 1E9 A 201      11.070  24.519   9.088  1.00 18.75     0.031 A 
HETATM   33  C37 1E9 A 201      11.761  25.360  10.000  1.00 16.19     0.055 A 
HETATM   34  S3  1E9 A 201      14.303  26.022  11.137  1.00 18.06     0.265 S 
HETATM   35  N5  1E9 A 201      15.610  25.152  10.603  1.00 17.57    -0.264 N 
HETATM   36  O3  1E9 A 201      14.451  27.410  10.654  1.00 20.15    -0.200 OA
HETATM   37  O4  1E9 A 201      14.024  25.789  12.561  1.00 17.05    -0.200 OA
HETATM   38  H5  1E9 A 201      16.563  25.290  10.939  1.00  0.00     0.180 HD
BRANCH  32  39
HETATM   39  N4  1E9 A 201       9.728  24.603   8.920  1.00 20.11    -0.377 N 
HETATM   40  C33 1E9 A 201       8.846  23.468   9.270  1.00 21.29     0.153 C 
HETATM   41  C32 1E9 A 201       7.369  23.891   9.497  1.00 19.39     0.292 C 
HETATM   42  N3  1E9 A 201       6.900  24.591   8.293  1.00 22.93     0.095 N 
HETATM   43  C35 1E9 A 201       7.666  25.844   8.188  1.00 21.59     0.292 C 
HETATM   44  C34 1E9 A 201       9.130  25.452   7.880  1.00 20.66     0.153 C 
BRANCH  42  45
HETATM   45  C31 1E9 A 201       5.451  24.834   8.342  1.00 24.32     0.312 C 
BRANCH  45  46
HETATM   46  C22 1E9 A 201       4.706  23.504   8.434  1.00 23.38    -0.019 A 
HETATM   47  C21 1E9 A 201       4.094  23.072   9.651  1.00 19.94    -0.018 A 
HETATM   48  C20 1E9 A 201       3.434  21.818   9.677  1.00 21.54     0.013 A 
HETATM   49  C19 1E9 A 201       3.402  20.988   8.532  1.00 24.24     0.001 A 
HETATM   50  C24 1E9 A 201       4.033  21.415   7.340  1.00 26.65     0.001 A 
HETATM   51  C23 1E9 A 201       4.683  22.665   7.290  1.00 23.38     0.010 A 
BRANCH  47  52
HETATM   52  C25 1E9 A 201       4.038  23.827  10.921  1.00 21.83    -0.025 A 
HETATM   53  C26 1E9 A 201       3.733  25.212  10.946  1.00 22.31     0.014 A 
HETATM   54  C27 1E9 A 201       3.643  25.913  12.171  1.00 21.61     0.024 A 
HETATM   55  C28 1E9 A 201       3.848  25.230  13.385  1.00 21.37     0.034 A 
HETATM   56  C29 1E9 A 201       4.156  23.852  13.381  1.00 18.64     0.024 A 
HETATM   57 CL1  1E9 A 201       3.730  26.080  14.885  1.00 25.72    -0.084 Cl
HETATM   58  C30 1E9 A 201       4.242  23.152  12.153  1.00 20.46     0.014 A 
ENDBRANCH  47  52
ENDBRANCH  45  46
ENDBRANCH  42  45
ENDBRANCH  32  39
ENDBRANCH  25  27
ENDBRANCH  22  25
ENDBRANCH  16  22
ENDBRANCH  11  13
ENDBRANCH   2  11
ENDBRANCH   1   2
BRANCH   1  59
HETATM   59  C3  1E9 A 201      22.401  19.107   4.591  1.00 33.21     0.273 C 
BRANCH  59  60
HETATM   60  N1  1E9 A 201      21.964  20.472   4.282  1.00 35.97     0.080 N 
HETATM   61  C6  1E9 A 201      20.660  20.425   3.628  1.00 32.92     0.309 C 
HETATM   62  C7  1E9 A 201      21.882  21.302   5.486  1.00 34.94     0.309 C 
ENDBRANCH  59  60
ENDBRANCH   1  59
TORSDOF 16
ENDMDL
MODEL 5
REMARK VINA RESULT:    -9.081      2.973      4.459
REMARK INTER + INTRA:         -19.615
REMARK INTER:                 -16.282
REMARK INTRA:                  -3.333
REMARK UNBOUND:                -2.040
REMARK  16 active torsions:
REMARK  status: ('A' for Active; 'I' for Inactive)
REMARK    1  A    between atoms: C1_1  and  C2_4 
REMARK    2  A    between atoms: C1_1  and  C3_6 
REMARK    3  A    between atoms: C2_4  and  C4_9 
REMARK    4  A    between atoms: C2_4  and  N2_33 
REMARK    5  A    between atoms: C3_6  and  N1_14 
REMARK    6  A    between atoms: C4_9  and  S1_12 
REMARK    7  A    between atoms: S1_12  and  C5_13 
REMARK    8  A    between atoms: N2_33  and  C17_41 
REMARK    9  A    between atoms: C14_37  and  S2_44 
REMARK   10  A    between atoms: C16_40  and  N7_102 
REMARK   11  A    between atoms: S2_44  and  N6_97 
REMARK   12  A    between atoms: C21_51  and  C25_57 
REMARK   13  A    between atoms: C22_52  and  C31_67 
REMARK   14  A    between atoms: C31_67  and  N3_70 
REMARK   15  A    between atoms: N4_77  and  C36_84 
REMARK   16  A    between atoms: C42_96  and  N6_97 
ROOT
HETATM    1  C1  1E9 A 201      13.587  25.837  10.073  1.00 31.62     0.056 C 
ENDROOT
BRANCH   1   2
HETATM    2  C2  1E9 A 201      14.810  26.177  10.950  1.00 26.22     0.093 C 
BRANCH   2   3
HETATM    3  C4  1E9 A 201      14.620  27.556  11.638  1.00 25.82     0.104 C 
BRANCH   3   4
HETATM    4  S1  1E9 A 201      14.304  27.572  13.444  1.00 29.66    -0.128 SA
BRANCH   4   5
HETATM    5  C5  1E9 A 201      15.435  26.445  14.178  1.00 22.11     0.000 A 
HETATM    6  C8  1E9 A 201      16.652  26.913  14.706  1.00 22.15     0.018 A 
HETATM    7  C9  1E9 A 201      17.545  25.994  15.290  1.00 19.48     0.001 A 
HETATM    8  C10 1E9 A 201      17.212  24.625  15.354  1.00 17.77     0.000 A 
HETATM    9  C11 1E9 A 201      15.991  24.163  14.822  1.00 21.70     0.001 A 
HETATM   10  C12 1E9 A 201      15.095  25.077  14.236  1.00 20.86     0.018 A 
ENDBRANCH   4   5
ENDBRANCH   3   4
ENDBRANCH   2   3
BRANCH   2  11
HETATM   11  N2  1E9 A 201      16.063  26.126  10.196  1.00 23.64    -0.383 N 
HETATM   12  H2  1E9 A 201      16.908  26.422  10.684  1.00  0.00     0.160 HD
BRANCH  11  13
HETATM   13  C17 1E9 A 201      16.206  25.724   8.913  1.00 22.61     0.061 A 
HETATM   14  C16 1E9 A 201      16.596  24.396   8.569  1.00 23.52     0.130 A 
HETATM   15  C15 1E9 A 201      16.724  24.050   7.206  1.00 21.63     0.063 A 
HETATM   16  C14 1E9 A 201      16.450  24.995   6.207  1.00 23.02     0.082 A 
HETATM   17  C13 1E9 A 201      16.050  26.300   6.524  1.00 21.77     0.028 A 
HETATM   18  C18 1E9 A 201      15.935  26.653   7.874  1.00 19.95     0.033 A 
BRANCH  14  19
HETATM   19  N7  1E9 A 201      16.917  23.353   9.565  1.00 25.21    -0.113 N 
HETATM   20  O5  1E9 A 201      16.495  22.218   9.368  1.00 29.38    -0.532 OA
HETATM   21  O6  1E9 A 201      17.625  23.644  10.519  1.00 22.75    -0.532 OA
ENDBRANCH  14  19
BRANCH  16  22
HETATM   22  S2  1E9 A 201      16.602  24.484   4.510  1.00 22.41     0.264 S 
HETATM   23  O1  1E9 A 201      16.437  23.024   4.443  1.00 23.80    -0.200 OA
HETATM   24  O2  1E9 A 201      17.745  25.188   3.891  1.00 22.92    -0.200 OA
BRANCH  22  25
HETATM   25  N6  1E9 A 201      15.229  25.074   3.705  1.00 19.56    -0.264 N 
HETATM   26  H6  1E9 A 201      15.231  26.040   3.379  1.00  0.00     0.180 HD
BRANCH  25  27
HETATM   27  C42 1E9 A 201      14.103  24.296   3.473  1.00 20.00     0.136 A 
HETATM   28  C40 1E9 A 201      12.931  24.461   4.348  1.00 19.63     0.033 A 
HETATM   29  C38 1E9 A 201      12.779  25.343   5.427  1.00 19.30     0.019 A 
HETATM   30  C41 1E9 A 201      11.909  23.606   3.964  1.00 16.72     0.096 A 
HETATM   31  C39 1E9 A 201      11.543  25.320   6.112  1.00 19.11     0.030 A 
HETATM   32  C36 1E9 A 201      10.484  24.451   5.716  1.00 18.75     0.031 A 
HETATM   33  C37 1E9 A 201      10.675  23.560   4.626  1.00 16.19     0.055 A 
HETATM   34  S3  1E9 A 201      12.484  22.672   2.594  1.00 18.06     0.265 S 
HETATM   35  N5  1E9 A 201      13.970  23.405   2.544  1.00 17.57    -0.264 N 
HETATM   36  O3  1E9 A 201      12.680  21.270   3.014  1.00 20.15    -0.200 OA
HETATM   37  O4  1E9 A 201      11.686  22.950   1.391  1.00 17.05    -0.200 OA
HETATM   38  H5  1E9 A 201      14.694  23.180   1.862  1.00  0.00     0.180 HD
BRANCH  32  39
HETATM   39  N4  1E9 A 201       9.317  24.495   6.403  1.00 20.11    -0.377 N 
HETATM   40  C33 1E9 A 201       8.745  23.273   7.008  1.00 21.29     0.153 C 
HETATM   41  C32 1E9 A 201       7.729  23.573   8.144  1.00 19.39     0.292 C 
HETATM   42  N3  1E9 A 201       6.682  24.453   7.605  1.00 22.93     0.095 N 
HETATM   43  C35 1E9 A 201       7.316  25.741   7.280  1.00 21.59     0.292 C 
HETATM   44  C34 1E9 A 201       8.276  25.485   6.095  1.00 20.66     0.153 C 
BRANCH  42  45
HETATM   45  C31 1E9 A 201       5.569  24.609   8.553  1.00 24.32     0.312 C 
BRANCH  45  46
HETATM   46  C22 1E9 A 201       4.704  23.350   8.548  1.00 23.38    -0.019 A 
HETATM   47  C21 1E9 A 201       4.016  22.911   9.721  1.00 19.94    -0.018 A 
HETATM   48  C20 1E9 A 201       3.245  21.724   9.657  1.00 21.54     0.013 A 
HETATM   49  C19 1E9 A 201       3.175  20.964   8.467  1.00 24.24     0.001 A 
HETATM   50  C24 1E9 A 201       3.881  21.394   7.319  1.00 26.65     0.001 A 
HETATM   51  C23 1E9 A 201       4.643  22.580   7.358  1.00 23.38     0.010 A 
BRANCH  47  52
HETATM   52  C25 1E9 A 201       3.987  23.598  11.031  1.00 21.83    -0.025 A 
HETATM   53  C26 1E9 A 201       4.412  22.948  12.217  1.00 22.31     0.014 A 
HETATM   54  C27 1E9 A 201       4.417  23.630  13.456  1.00 21.61     0.024 A 
HETATM   55  C28 1E9 A 201       4.004  24.975  13.516  1.00 21.37     0.034 A 
HETATM   56  C29 1E9 A 201       3.573  25.638  12.347  1.00 18.64     0.024 A 
HETATM   57 CL1  1E9 A 201       4.017  25.816  15.025  1.00 25.72    -0.084 Cl
HETATM   58  C30 1E9 A 201       3.572  24.953  11.107  1.00 20.46     0.014 A 
ENDBRANCH  47  52
ENDBRANCH  45  46
ENDBRANCH  42  45
ENDBRANCH  32  39
ENDBRANCH  25  27
ENDBRANCH  22  25
ENDBRANCH  16  22
ENDBRANCH  11  13
ENDBRANCH   2  11
ENDBRANCH   1   2
BRANCH   1  59
HETATM   59  C3  1E9 A 201      12.824  24.557  10.461  1.00 33.21     0.273 C 
BRANCH  59  60
HETATM   60  N1  1E9 A 201      12.058  24.055   9.317  1.00 35.97     0.080 N 
HETATM   61  C6  1E9 A 201      12.853  23.063   8.601  1.00 32.92     0.309 C 
HETATM   62  C7  1E9 A 201      10.786  23.461   9.734  1.00 34.94     0.309 C 
ENDBRANCH  59  60
ENDBRANCH   1  59
TORSDOF 16
ENDMDL
MODEL 6
REMARK VINA RESULT:    -9.057      5.479      9.437
REMARK INTER + INTRA:         -19.568
REMARK INTER:                 -16.841
REMARK INTRA:                  -2.727
REMARK UNBOUND:                -2.040
REMARK  16 active torsions:
REMARK  status: ('A' for Active; 'I' for Inactive)
REMARK    1  A    between atoms: C1_1  and  C2_4 
REMARK    2  A    between atoms: C1_1  and  C3_6 
REMARK    3  A    between atoms: C2_4  and  C4_9 
REMARK    4  A    between atoms: C2_4  and  N2_33 
REMARK    5  A    between atoms: C3_6  and  N1_14 
REMARK    6  A    between atoms: C4_9  and  S1_12 
REMARK    7  A    between atoms: S1_12  and  C5_13 
REMARK    8  A    between atoms: N2_33  and  C17_41 
REMARK    9  A    between atoms: C14_37  and  S2_44 
REMARK   10  A    between atoms: C16_40  and  N7_102 
REMARK   11  A    between atoms: S2_44  and  N6_97 
REMARK   12  A    between atoms: C21_51  and  C25_57 
REMARK   13  A    between atoms: C22_52  and  C31_67 
REMARK   14  A    between atoms: C31_67  and  N3_70 
REMARK   15  A    between atoms: N4_77  and  C36_84 
REMARK   16  A    between atoms: C42_96  and  N6_97 
ROOT
HETATM    1  C1  1E9 A 201      20.618  18.086   4.621  1.00 31.62     0.056 C 
ENDROOT
BRANCH   1   2
HETATM    2  C2  1E9 A 201      20.582  17.540   6.065  1.00 26.22     0.093 C 
BRANCH   2   3
HETATM    3  C4  1E9 A 201      20.946  16.031   6.085  1.00 25.82     0.104 C 
BRANCH   3   4
HETATM    4  S1  1E9 A 201      19.920  14.920   7.122  1.00 29.66    -0.128 SA
BRANCH   4   5
HETATM    5  C5  1E9 A 201      18.776  14.123   6.053  1.00 22.11     0.000 A 
HETATM    6  C8  1E9 A 201      18.729  12.718   5.994  1.00 22.15     0.018 A 
HETATM    7  C9  1E9 A 201      17.804  12.098   5.130  1.00 19.48     0.001 A 
HETATM    8  C10 1E9 A 201      16.931  12.882   4.347  1.00 17.77     0.000 A 
HETATM    9  C11 1E9 A 201      16.984  14.289   4.412  1.00 21.70     0.001 A 
HETATM   10  C12 1E9 A 201      17.907  14.914   5.273  1.00 20.86     0.018 A 
ENDBRANCH   4   5
ENDBRANCH   3   4
ENDBRANCH   2   3
BRANCH   2  11
HETATM   11  N2  1E9 A 201      19.296  17.786   6.717  1.00 23.64    -0.383 N 
HETATM   12  H2  1E9 A 201      18.592  17.052   6.643  1.00  0.00     0.160 HD
BRANCH  11  13
HETATM   13  C17 1E9 A 201      18.952  18.896   7.410  1.00 22.61     0.061 A 
HETATM   14  C16 1E9 A 201      19.377  19.119   8.753  1.00 23.52     0.130 A 
HETATM   15  C15 1E9 A 201      18.977  20.302   9.411  1.00 21.63     0.063 A 
HETATM   16  C14 1E9 A 201      18.192  21.253   8.744  1.00 23.02     0.082 A 
HETATM   17  C13 1E9 A 201      17.778  21.060   7.419  1.00 21.77     0.028 A 
HETATM   18  C18 1E9 A 201      18.158  19.882   6.766  1.00 19.95     0.033 A 
BRANCH  14  19
HETATM   19  N7  1E9 A 201      20.190  18.156   9.524  1.00 25.21    -0.113 N 
HETATM   20  O5  1E9 A 201      21.302  18.512   9.901  1.00 29.38    -0.532 OA
HETATM   21  O6  1E9 A 201      19.711  17.065   9.800  1.00 22.75    -0.532 OA
ENDBRANCH  14  19
BRANCH  16  22
HETATM   22  S2  1E9 A 201      17.750  22.735   9.622  1.00 22.41     0.264 S 
HETATM   23  O1  1E9 A 201      18.660  23.814   9.210  1.00 23.80    -0.200 OA
HETATM   24  O2  1E9 A 201      17.494  22.403  11.039  1.00 22.92    -0.200 OA
BRANCH  22  25
HETATM   25  N6  1E9 A 201      16.247  23.230   9.005  1.00 19.56    -0.264 N 
HETATM   26  H6  1E9 A 201      15.943  22.860   8.105  1.00  0.00     0.180 HD
BRANCH  25  27
HETATM   27  C42 1E9 A 201      15.417  24.117   9.674  1.00 20.00     0.136 A 
HETATM   28  C40 1E9 A 201      13.979  24.125   9.355  1.00 19.63     0.033 A 
HETATM   29  C38 1E9 A 201      13.297  23.317   8.434  1.00 19.30     0.019 A 
HETATM   30  C41 1E9 A 201      13.313  25.070  10.120  1.00 16.72     0.096 A 
HETATM   31  C39 1E9 A 201      11.902  23.509   8.315  1.00 19.11     0.030 A 
HETATM   32  C36 1E9 A 201      11.208  24.472   9.106  1.00 18.75     0.031 A 
HETATM   33  C37 1E9 A 201      11.931  25.285  10.019  1.00 16.19     0.055 A 
HETATM   34  S3  1E9 A 201      14.503  25.870  11.132  1.00 18.06     0.265 S 
HETATM   35  N5  1E9 A 201      15.781  24.974  10.572  1.00 17.57    -0.264 N 
HETATM   36  O3  1E9 A 201      14.679  27.259  10.663  1.00 20.15    -0.200 OA
HETATM   37  O4  1E9 A 201      14.234  25.628  12.557  1.00 17.05    -0.200 OA
HETATM   38  H5  1E9 A 201      16.741  25.085  10.898  1.00  0.00     0.180 HD
BRANCH  32  39
HETATM   39  N4  1E9 A 201       9.867  24.590   8.956  1.00 20.11    -0.377 N 
HETATM   40  C33 1E9 A 201       8.968  23.447   9.225  1.00 21.29     0.153 C 
HETATM   41  C32 1E9 A 201       7.500  23.876   9.496  1.00 19.39     0.292 C 
HETATM   42  N3  1E9 A 201       7.035  24.675   8.352  1.00 22.93     0.095 N 
HETATM   43  C35 1E9 A 201       7.823  25.919   8.337  1.00 21.59     0.292 C 
HETATM   44  C34 1E9 A 201       9.278  25.526   7.989  1.00 20.66     0.153 C 
BRANCH  42  45
HETATM   45  C31 1E9 A 201       5.591  24.937   8.430  1.00 24.32     0.312 C 
BRANCH  45  46
HETATM   46  C22 1E9 A 201       4.823  23.617   8.429  1.00 23.38    -0.019 A 
HETATM   47  C21 1E9 A 201       4.168  23.131   9.602  1.00 19.94    -0.018 A 
HETATM   48  C20 1E9 A 201       3.489  21.889   9.541  1.00 21.54     0.013 A 
HETATM   49  C19 1E9 A 201       3.480  21.122   8.353  1.00 24.24     0.001 A 
HETATM   50  C24 1E9 A 201       4.154  21.600   7.206  1.00 26.65     0.001 A 
HETATM   51  C23 1E9 A 201       4.824  22.840   7.242  1.00 23.38     0.010 A 
BRANCH  47  52
HETATM   52  C25 1E9 A 201       4.083  23.819  10.909  1.00 21.83    -0.025 A 
HETATM   53  C26 1E9 A 201       4.559  23.210  12.098  1.00 22.31     0.014 A 
HETATM   54  C27 1E9 A 201       4.509  23.894  13.334  1.00 21.61     0.024 A 
HETATM   55  C28 1E9 A 201       3.990  25.202  13.389  1.00 21.37     0.034 A 
HETATM   56  C29 1E9 A 201       3.508  25.825  12.217  1.00 18.64     0.024 A 
HETATM   57 CL1  1E9 A 201       3.936  26.048  14.895  1.00 25.72    -0.084 Cl
HETATM   58  C30 1E9 A 201       3.563  25.137  10.979  1.00 20.46     0.014 A 
ENDBRANCH  47  52
ENDBRANCH  45  46
ENDBRANCH  42  45
ENDBRANCH  32  39
ENDBRANCH  25  27
ENDBRANCH  22  25
ENDBRANCH  16  22
ENDBRANCH  11  13
ENDBRANCH   2  11
ENDBRANCH   1   2
BRANCH   1  59
HETATM   59  C3  1E9 A 201      21.638  19.210   4.361  1.00 33.21     0.273 C 
BRANCH  59  60
HETATM   60  N1  1E9 A 201      22.913  18.899   5.013  1.00 35.97     0.080 N 
HETATM   61  C6  1E9 A 201      23.846  18.371   4.023  1.00 32.92     0.309 C 
HETATM   62  C7  1E9 A 201      23.494  20.079   5.658  1.00 34.94     0.309 C 
ENDBRANCH  59  60
ENDBRANCH   1  59
TORSDOF 16
ENDMDL
MODEL 7
REMARK VINA RESULT:    -8.975      3.786     13.535
REMARK INTER + INTRA:         -19.409
REMARK INTER:                 -17.369
REMARK INTRA:                  -2.040
REMARK UNBOUND:                -2.040
REMARK  16 active torsions:
REMARK  status: ('A' for Active; 'I' for Inactive)
REMARK    1  A    between atoms: C1_1  and  C2_4 
REMARK    2  A    between atoms: C1_1  and  C3_6 
REMARK    3  A    between atoms: C2_4  and  C4_9 
REMARK    4  A    between atoms: C2_4  and  N2_33 
REMARK    5  A    between atoms: C3_6  and  N1_14 
REMARK    6  A    between atoms: C4_9  and  S1_12 
REMARK    7  A    between atoms: S1_12  and  C5_13 
REMARK    8  A    between atoms: N2_33  and  C17_41 
REMARK    9  A    between atoms: C14_37  and  S2_44 
REMARK   10  A    between atoms: C16_40  and  N7_102 
REMARK   11  A    between atoms: S2_44  and  N6_97 
REMARK   12  A    between atoms: C21_51  and  C25_57 
REMARK   13  A    between atoms: C22_52  and  C31_67 
REMARK   14  A    between atoms: C31_67  and  N3_70 
REMARK   15  A    between atoms: N4_77  and  C36_84 
REMARK   16  A    between atoms: C42_96  and  N6_97 
ROOT
HETATM    1  C1  1E9 A 201       4.392  24.466   7.497  1.00 31.62     0.056 C 
ENDROOT
BRANCH   1   2
HETATM    2  C2  1E9 A 201       5.718  24.218   8.247  1.00 26.22     0.093 C 
BRANCH   2   3
HETATM    3  C4  1E9 A 201       5.599  24.671   9.727  1.00 25.82     0.104 C 
BRANCH   3   4
HETATM    4  S1  1E9 A 201       4.026  25.450  10.257  1.00 29.66    -0.128 SA
BRANCH   4   5
HETATM    5  C5  1E9 A 201       3.988  25.399  12.013  1.00 22.11     0.000 A 
HETATM    6  C8  1E9 A 201       3.617  26.543  12.742  1.00 22.15     0.018 A 
HETATM    7  C9  1E9 A 201       3.592  26.482  14.149  1.00 19.48     0.001 A 
HETATM    8  C10 1E9 A 201       3.925  25.283  14.812  1.00 17.77     0.000 A 
HETATM    9  C11 1E9 A 201       4.297  24.140  14.075  1.00 21.70     0.001 A 
HETATM   10  C12 1E9 A 201       4.324  24.196  12.668  1.00 20.86     0.018 A 
ENDBRANCH   4   5
ENDBRANCH   3   4
ENDBRANCH   2   3
BRANCH   2  11
HETATM   11  N2  1E9 A 201       6.856  24.856   7.584  1.00 23.64    -0.383 N 
HETATM   12  H2  1E9 A 201       6.651  25.643   6.969  1.00  0.00     0.160 HD
BRANCH  11  13
HETATM   13  C17 1E9 A 201       8.155  24.500   7.711  1.00 22.61     0.061 A 
HETATM   14  C16 1E9 A 201       8.690  23.335   7.087  1.00 23.52     0.130 A 
HETATM   15  C15 1E9 A 201      10.057  23.028   7.265  1.00 21.63     0.063 A 
HETATM   16  C14 1E9 A 201      10.878  23.870   8.027  1.00 23.02     0.082 A 
HETATM   17  C13 1E9 A 201      10.375  25.029   8.635  1.00 21.77     0.028 A 
HETATM   18  C18 1E9 A 201       9.017  25.331   8.474  1.00 19.95     0.033 A 
BRANCH  14  19
HETATM   19  N7  1E9 A 201       7.884  22.392   6.285  1.00 25.21    -0.113 N 
HETATM   20  O5  1E9 A 201       7.213  22.846   5.363  1.00 29.38    -0.532 OA
HETATM   21  O6  1E9 A 201       7.949  21.196   6.535  1.00 22.75    -0.532 OA
ENDBRANCH  14  19
BRANCH  16  22
HETATM   22  S2  1E9 A 201      12.597  23.441   8.186  1.00 22.41     0.264 S 
HETATM   23  O1  1E9 A 201      13.316  23.938   7.002  1.00 23.80    -0.200 OA
HETATM   24  O2  1E9 A 201      12.708  22.046   8.661  1.00 22.92    -0.200 OA
BRANCH  22  25
HETATM   25  N6  1E9 A 201      13.215  24.391   9.450  1.00 19.56    -0.264 N 
HETATM   26  H6  1E9 A 201      12.621  24.577  10.257  1.00  0.00     0.180 HD
BRANCH  25  27
HETATM   27  C42 1E9 A 201      14.496  24.926   9.429  1.00 20.00     0.136 A 
HETATM   28  C40 1E9 A 201      15.087  25.404  10.689  1.00 19.63     0.033 A 
HETATM   29  C38 1E9 A 201      14.518  25.384  11.971  1.00 19.30     0.019 A 
HETATM   30  C41 1E9 A 201      16.364  25.900  10.474  1.00 16.72     0.096 A 
HETATM   31  C39 1E9 A 201      15.298  25.896  13.033  1.00 19.11     0.030 A 
HETATM   32  C36 1E9 A 201      16.615  26.398  12.820  1.00 18.75     0.031 A 
HETATM   33  C37 1E9 A 201      17.158  26.417  11.508  1.00 16.19     0.055 A 
HETATM   34  S3  1E9 A 201      16.707  25.758   8.759  1.00 18.06     0.265 S 
HETATM   35  N5  1E9 A 201      15.249  25.064   8.386  1.00 17.57    -0.264 N 
HETATM   36  O3  1E9 A 201      16.737  27.107   8.159  1.00 20.15    -0.200 OA
HETATM   37  O4  1E9 A 201      17.835  24.847   8.518  1.00 17.05    -0.200 OA
HETATM   38  H5  1E9 A 201      14.977  24.778   7.446  1.00  0.00     0.180 HD
BRANCH  32  39
HETATM   39  N4  1E9 A 201      17.315  26.855  13.886  1.00 20.11    -0.377 N 
HETATM   40  C33 1E9 A 201      16.864  26.579  15.267  1.00 21.29     0.153 C 
HETATM   41  C32 1E9 A 201      17.998  26.718  16.319  1.00 19.39     0.292 C 
HETATM   42  N3  1E9 A 201      18.577  28.063  16.196  1.00 22.93     0.095 N 
HETATM   43  C35 1E9 A 201      19.235  28.139  14.882  1.00 21.59     0.292 C 
HETATM   44  C34 1E9 A 201      18.117  28.084  13.815  1.00 20.66     0.153 C 
BRANCH  42  45
HETATM   45  C31 1E9 A 201      19.509  28.350  17.297  1.00 24.32     0.312 C 
BRANCH  45  46
HETATM   46  C22 1E9 A 201      20.838  28.849  16.733  1.00 23.38    -0.019 A 
HETATM   47  C21 1E9 A 201      21.058  30.231  16.445  1.00 19.94    -0.018 A 
HETATM   48  C20 1E9 A 201      22.306  30.627  15.905  1.00 21.54     0.013 A 
HETATM   49  C19 1E9 A 201      23.313  29.675  15.625  1.00 24.24     0.001 A 
HETATM   50  C24 1E9 A 201      23.076  28.306  15.890  1.00 26.65     0.001 A 
HETATM   51  C23 1E9 A 201      21.845  27.893  16.440  1.00 23.38     0.010 A 
BRANCH  47  52
HETATM   52  C25 1E9 A 201      20.109  31.340  16.688  1.00 21.83    -0.025 A 
HETATM   53  C26 1E9 A 201      20.114  32.063  17.908  1.00 22.31     0.014 A 
HETATM   54  C27 1E9 A 201      19.228  33.147  18.112  1.00 21.61     0.024 A 
HETATM   55  C28 1E9 A 201      18.335  33.523  17.091  1.00 21.37     0.034 A 
HETATM   56  C29 1E9 A 201      18.312  32.812  15.871  1.00 18.64     0.024 A 
HETATM   57 CL1  1E9 A 201      17.257  34.852  17.330  1.00 25.72    -0.084 Cl
HETATM   58  C30 1E9 A 201      19.203  31.729  15.668  1.00 20.46     0.014 A 
ENDBRANCH  47  52
ENDBRANCH  45  46
ENDBRANCH  42  45
ENDBRANCH  32  39
ENDBRANCH  25  27
ENDBRANCH  22  25
ENDBRANCH  16  22
ENDBRANCH  11  13
ENDBRANCH   2  11
ENDBRANCH   1   2
BRANCH   1  59
HETATM   59  C3  1E9 A 201       3.505  23.225   7.284  1.00 33.21     0.273 C 
BRANCH  59  60
HETATM   60  N1  1E9 A 201       4.228  22.012   7.678  1.00 35.97     0.080 N 
HETATM   61  C6  1E9 A 201       3.514  21.358   8.770  1.00 32.92     0.309 C 
HETATM   62  C7  1E9 A 201       4.376  21.081   6.558  1.00 34.94     0.309 C 
ENDBRANCH  59  60
ENDBRANCH   1  59
TORSDOF 16
ENDMDL
MODEL 8
REMARK VINA RESULT:    -8.862      3.381      5.765
REMARK INTER + INTRA:         -19.191
REMARK INTER:                 -15.939
REMARK INTRA:                  -3.252
REMARK UNBOUND:                -2.040
REMARK  16 active torsions:
REMARK  status: ('A' for Active; 'I' for Inactive)
REMARK    1  A    between atoms: C1_1  and  C2_4 
REMARK    2  A    between atoms: C1_1  and  C3_6 
REMARK    3  A    between atoms: C2_4  and  C4_9 
REMARK    4  A    between atoms: C2_4  and  N2_33 
REMARK    5  A    between atoms: C3_6  and  N1_14 
REMARK    6  A    between atoms: C4_9  and  S1_12 
REMARK    7  A    between atoms: S1_12  and  C5_13 
REMARK    8  A    between atoms: N2_33  and  C17_41 
REMARK    9  A    between atoms: C14_37  and  S2_44 
REMARK   10  A    between atoms: C16_40  and  N7_102 
REMARK   11  A    between atoms: S2_44  and  N6_97 
REMARK   12  A    between atoms: C21_51  and  C25_57 
REMARK   13  A    between atoms: C22_52  and  C31_67 
REMARK   14  A    between atoms: C31_67  and  N3_70 
REMARK   15  A    between atoms: N4_77  and  C36_84 
REMARK   16  A    between atoms: C42_96  and  N6_97 
ROOT
HETATM    1  C1  1E9 A 201      20.976  30.575  17.474  1.00 31.62     0.056 C 
ENDROOT
BRANCH   1   2
HETATM    2  C2  1E9 A 201      21.618  29.245  17.925  1.00 26.22     0.093 C 
BRANCH   2   3
HETATM    3  C4  1E9 A 201      23.165  29.376  17.968  1.00 25.82     0.104 C 
BRANCH   3   4
HETATM    4  S1  1E9 A 201      23.968  29.455  19.615  1.00 29.66    -0.128 SA
BRANCH   4   5
HETATM    5  C5  1E9 A 201      22.948  30.453  20.641  1.00 22.11     0.000 A 
HETATM    6  C8  1E9 A 201      23.185  31.837  20.735  1.00 22.15     0.018 A 
HETATM    7  C9  1E9 A 201      22.356  32.620  21.562  1.00 19.48     0.001 A 
HETATM    8  C10 1E9 A 201      21.296  32.021  22.274  1.00 17.77     0.000 A 
HETATM    9  C11 1E9 A 201      21.065  30.634  22.175  1.00 21.70     0.001 A 
HETATM   10  C12 1E9 A 201      21.891  29.846  21.350  1.00 20.86     0.018 A 
ENDBRANCH   4   5
ENDBRANCH   3   4
ENDBRANCH   2   3
BRANCH   2  11
HETATM   11  N2  1E9 A 201      21.202  28.119  17.089  1.00 23.64    -0.383 N 
HETATM   12  H2  1E9 A 201      21.816  27.304  17.072  1.00  0.00     0.160 HD
BRANCH  11  13
HETATM   13  C17 1E9 A 201      20.081  28.056  16.334  1.00 22.61     0.061 A 
HETATM   14  C16 1E9 A 201      20.089  28.316  14.933  1.00 23.52     0.130 A 
HETATM   15  C15 1E9 A 201      18.878  28.231  14.212  1.00 21.63     0.063 A 
HETATM   16  C14 1E9 A 201      17.690  27.876  14.864  1.00 23.02     0.082 A 
HETATM   17  C13 1E9 A 201      17.663  27.600  16.239  1.00 21.77     0.028 A 
HETATM   18  C18 1E9 A 201      18.859  27.697  16.961  1.00 19.95     0.033 A 
BRANCH  14  19
HETATM   19  N7  1E9 A 201      21.298  28.713  14.181  1.00 25.21    -0.113 N 
HETATM   20  O5  1E9 A 201      22.269  27.963  14.212  1.00 29.38    -0.532 OA
HETATM   21  O6  1E9 A 201      21.273  29.742  13.521  1.00 22.75    -0.532 OA
ENDBRANCH  14  19
BRANCH  16  22
HETATM   22  S2  1E9 A 201      16.206  27.758  13.891  1.00 22.41     0.264 S 
HETATM   23  O1  1E9 A 201      16.302  28.707  12.772  1.00 23.80    -0.200 OA
HETATM   24  O2  1E9 A 201      15.036  27.702  14.793  1.00 22.92    -0.200 OA
BRANCH  22  25
HETATM   25  N6  1E9 A 201      16.250  26.242  13.127  1.00 19.56    -0.264 N 
HETATM   26  H6  1E9 A 201      16.445  25.416  13.691  1.00  0.00     0.180 HD
BRANCH  25  27
HETATM   27  C42 1E9 A 201      16.032  26.081  11.766  1.00 20.00     0.136 A 
HETATM   28  C40 1E9 A 201      14.708  25.632  11.306  1.00 19.63     0.033 A 
HETATM   29  C38 1E9 A 201      13.578  25.340  12.084  1.00 19.30     0.019 A 
HETATM   30  C41 1E9 A 201      14.679  25.531   9.923  1.00 16.72     0.096 A 
HETATM   31  C39 1E9 A 201      12.410  24.934  11.401  1.00 19.11     0.030 A 
HETATM   32  C36 1E9 A 201      12.369  24.838   9.979  1.00 18.75     0.031 A 
HETATM   33  C37 1E9 A 201      13.535  25.127   9.220  1.00 16.19     0.055 A 
HETATM   34  S3  1E9 A 201      16.268  25.969   9.324  1.00 18.06     0.265 S 
HETATM   35  N5  1E9 A 201      16.898  26.282  10.826  1.00 17.57    -0.264 N 
HETATM   36  O3  1E9 A 201      16.933  24.762   8.793  1.00 20.15    -0.200 OA
HETATM   37  O4  1E9 A 201      16.205  27.175   8.485  1.00 17.05    -0.200 OA
HETATM   38  H5  1E9 A 201      17.854  26.595  10.989  1.00  0.00     0.180 HD
BRANCH  32  39
HETATM   39  N4  1E9 A 201      11.210  24.462   9.387  1.00 20.11    -0.377 N 
HETATM   40  C33 1E9 A 201      10.287  25.467   8.816  1.00 21.29     0.153 C 
HETATM   41  C32 1E9 A 201       9.309  24.870   7.767  1.00 19.39     0.292 C 
HETATM   42  N3  1E9 A 201       8.580  23.760   8.396  1.00 22.93     0.095 N 
HETATM   43  C35 1E9 A 201       9.560  22.699   8.683  1.00 21.59     0.292 C 
HETATM   44  C34 1E9 A 201      10.499  23.240   9.786  1.00 20.66     0.153 C 
BRANCH  42  45
HETATM   45  C31 1E9 A 201       7.484  23.282   7.541  1.00 24.32     0.312 C 
BRANCH  45  46
HETATM   46  C22 1E9 A 201       6.224  23.077   8.379  1.00 23.38    -0.019 A 
HETATM   47  C21 1E9 A 201       5.015  22.579   7.803  1.00 19.94    -0.018 A 
HETATM   48  C20 1E9 A 201       3.874  22.430   8.630  1.00 21.54     0.013 A 
HETATM   49  C19 1E9 A 201       3.913  22.794   9.996  1.00 24.24     0.001 A 
HETATM   50  C24 1E9 A 201       5.107  23.310  10.550  1.00 26.65     0.001 A 
HETATM   51  C23 1E9 A 201       6.258  23.453   9.747  1.00 23.38     0.010 A 
BRANCH  47  52
HETATM   52  C25 1E9 A 201       4.822  22.152   6.400  1.00 21.83    -0.025 A 
HETATM   53  C26 1E9 A 201       5.179  20.849   5.968  1.00 22.31     0.014 A 
HETATM   54  C27 1E9 A 201       4.952  20.440   4.633  1.00 21.61     0.024 A 
HETATM   55  C28 1E9 A 201       4.356  21.331   3.720  1.00 21.37     0.034 A 
HETATM   56  C29 1E9 A 201       3.997  22.634   4.130  1.00 18.64     0.024 A 
HETATM   57 CL1  1E9 A 201       4.067  20.834   2.090  1.00 25.72    -0.084 Cl
HETATM   58  C30 1E9 A 201       4.222  23.039   5.469  1.00 20.46     0.014 A 
ENDBRANCH  47  52
ENDBRANCH  45  46
ENDBRANCH  42  45
ENDBRANCH  32  39
ENDBRANCH  25  27
ENDBRANCH  22  25
ENDBRANCH  16  22
ENDBRANCH  11  13
ENDBRANCH   2  11
ENDBRANCH   1   2
BRANCH   1  59
HETATM   59  C3  1E9 A 201      20.151  31.312  18.545  1.00 33.21     0.273 C 
BRANCH  59  60
HETATM   60  N1  1E9 A 201      20.185  32.758  18.305  1.00 35.97     0.080 N 
HETATM   61  C6  1E9 A 201      21.486  33.126  17.758  1.00 32.92     0.309 C 
HETATM   62  C7  1E9 A 201      19.126  33.180  17.386  1.00 34.94     0.309 C 
ENDBRANCH  59  60
ENDBRANCH   1  59
TORSDOF 16
ENDMDL
MODEL 9
REMARK VINA RESULT:    -8.831      3.017      5.321
REMARK INTER + INTRA:         -19.130
REMARK INTER:                 -16.041
REMARK INTRA:                  -3.089
REMARK UNBOUND:                -2.040
REMARK  16 active torsions:
REMARK  status: ('A' for Active; 'I' for Inactive)
REMARK    1  A    between atoms: C1_1  and  C2_4 
REMARK    2  A    between atoms: C1_1  and  C3_6 
REMARK    3  A    between atoms: C2_4  and  C4_9 
REMARK    4  A    between atoms: C2_4  and  N2_33 
REMARK    5  A    between atoms: C3_6  and  N1_14 
REMARK    6  A    between atoms: C4_9  and  S1_12 
REMARK    7  A    between atoms: S1_12  and  C5_13 
REMARK    8  A    between atoms: N2_33  and  C17_41 
REMARK    9  A    between atoms: C14_37  and  S2_44 
REMARK   10  A    between atoms: C16_40  and  N7_102 
REMARK   11  A    between atoms: S2_44  and  N6_97 
REMARK   12  A    between atoms: C21_51  and  C25_57 
REMARK   13  A    between atoms: C22_52  and  C31_67 
REMARK   14  A    between atoms: C31_67  and  N3_70 
REMARK   15  A    between atoms: N4_77  and  C36_84 
REMARK   16  A    between atoms: C42_96  and  N6_97 
ROOT
HETATM    1  C1  1E9 A 201      21.273  30.788  17.144  1.00 31.62     0.056 C 
ENDROOT
BRANCH   1   2
HETATM    2  C2  1E9 A 201      20.762  29.332  17.125  1.00 26.22     0.093 C 
BRANCH   2   3
HETATM    3  C4  1E9 A 201      21.400  28.547  15.947  1.00 25.82     0.104 C 
BRANCH   3   4
HETATM    4  S1  1E9 A 201      21.693  29.451  14.379  1.00 29.66    -0.128 SA
BRANCH   4   5
HETATM    5  C5  1E9 A 201      22.353  28.296  13.231  1.00 22.11     0.000 A 
HETATM    6  C8  1E9 A 201      21.714  28.089  11.995  1.00 22.15     0.018 A 
HETATM    7  C9  1E9 A 201      22.259  27.159  11.088  1.00 19.48     0.001 A 
HETATM    8  C10 1E9 A 201      23.438  26.457  11.416  1.00 17.77     0.000 A 
HETATM    9  C11 1E9 A 201      24.073  26.670  12.656  1.00 21.70     0.001 A 
HETATM   10  C12 1E9 A 201      23.531  27.598  13.567  1.00 20.86     0.018 A 
ENDBRANCH   4   5
ENDBRANCH   3   4
ENDBRANCH   2   3
BRANCH   2  11
HETATM   11  N2  1E9 A 201      19.301  29.260  17.083  1.00 23.64    -0.383 N 
HETATM   12  H2  1E9 A 201      18.788  29.925  17.662  1.00  0.00     0.160 HD
BRANCH  11  13
HETATM   13  C17 1E9 A 201      18.565  28.393  16.349  1.00 22.61     0.061 A 
HETATM   14  C16 1E9 A 201      17.936  28.772  15.127  1.00 23.52     0.130 A 
HETATM   15  C15 1E9 A 201      17.185  27.812  14.416  1.00 21.63     0.063 A 
HETATM   16  C14 1E9 A 201      17.078  26.499  14.896  1.00 23.02     0.082 A 
HETATM   17  C13 1E9 A 201      17.703  26.102  16.087  1.00 21.77     0.028 A 
HETATM   18  C18 1E9 A 201      18.438  27.054  16.804  1.00 19.95     0.033 A 
BRANCH  14  19
HETATM   19  N7  1E9 A 201      17.990  30.139  14.568  1.00 25.21    -0.113 N 
HETATM   20  O5  1E9 A 201      18.068  30.261  13.350  1.00 29.38    -0.532 OA
HETATM   21  O6  1E9 A 201      17.906  31.093  15.329  1.00 22.75    -0.532 OA
ENDBRANCH  14  19
BRANCH  16  22
HETATM   22  S2  1E9 A 201      16.141  25.332  13.936  1.00 22.41     0.264 S 
HETATM   23  O1  1E9 A 201      14.777  25.262  14.482  1.00 23.80    -0.200 OA
HETATM   24  O2  1E9 A 201      16.966  24.130  13.692  1.00 22.92    -0.200 OA
BRANCH  22  25
HETATM   25  N6  1E9 A 201      15.918  26.035  12.406  1.00 19.56    -0.264 N 
HETATM   26  H6  1E9 A 201      15.865  27.051  12.339  1.00  0.00     0.180 HD
BRANCH  25  27
HETATM   27  C42 1E9 A 201      15.806  25.285  11.245  1.00 20.00     0.136 A 
HETATM   28  C40 1E9 A 201      14.465  25.009  10.702  1.00 19.63     0.033 A 
HETATM   29  C38 1E9 A 201      13.227  25.427  11.212  1.00 19.30     0.019 A 
HETATM   30  C41 1E9 A 201      14.552  24.252   9.544  1.00 16.72     0.096 A 
HETATM   31  C39 1E9 A 201      12.071  25.039  10.498  1.00 19.11     0.030 A 
HETATM   32  C36 1E9 A 201      12.153  24.270   9.300  1.00 18.75     0.031 A 
HETATM   33  C37 1E9 A 201      13.421  23.851   8.818  1.00 16.19     0.055 A 
HETATM   34  S3  1E9 A 201      16.251  23.931   9.244  1.00 18.06     0.265 S 
HETATM   35  N5  1E9 A 201      16.784  24.776  10.567  1.00 17.57    -0.264 N 
HETATM   36  O3  1E9 A 201      16.519  22.498   9.479  1.00 20.15    -0.200 OA
HETATM   37  O4  1E9 A 201      16.690  24.540   7.980  1.00 17.05    -0.200 OA
HETATM   38  H5  1E9 A 201      17.766  24.882  10.818  1.00  0.00     0.180 HD
BRANCH  32  39
HETATM   39  N4  1E9 A 201      11.005  23.950   8.655  1.00 20.11    -0.377 N 
HETATM   40  C33 1E9 A 201      10.598  24.668   7.427  1.00 21.29     0.153 C 
HETATM   41  C32 1E9 A 201       9.580  23.873   6.564  1.00 19.39     0.292 C 
HETATM   42  N3  1E9 A 201       8.423  23.541   7.407  1.00 22.93     0.095 N 
HETATM   43  C35 1E9 A 201       8.890  22.606   8.445  1.00 21.59     0.292 C 
HETATM   44  C34 1E9 A 201       9.846  23.397   9.367  1.00 20.66     0.153 C 
BRANCH  42  45
HETATM   45  C31 1E9 A 201       7.322  22.977   6.613  1.00 24.32     0.312 C 
BRANCH  45  46
HETATM   46  C22 1E9 A 201       6.269  24.052   6.352  1.00 23.38    -0.019 A 
HETATM   47  C21 1E9 A 201       5.179  24.266   7.251  1.00 19.94    -0.018 A 
HETATM   48  C20 1E9 A 201       4.224  25.265   6.943  1.00 21.54     0.013 A 
HETATM   49  C19 1E9 A 201       4.322  26.024   5.753  1.00 24.24     0.001 A 
HETATM   50  C24 1E9 A 201       5.390  25.786   4.857  1.00 26.65     0.001 A 
HETATM   51  C23 1E9 A 201       6.359  24.805   5.153  1.00 23.38     0.010 A 
BRANCH  47  52
HETATM   52  C25 1E9 A 201       4.947  23.561   8.531  1.00 21.83    -0.025 A 
HETATM   53  C26 1E9 A 201       5.563  23.990   9.734  1.00 22.31     0.014 A 
HETATM   54  C27 1E9 A 201       5.301  23.333  10.958  1.00 21.61     0.024 A 
HETATM   55  C28 1E9 A 201       4.409  22.243  10.991  1.00 21.37     0.034 A 
HETATM   56  C29 1E9 A 201       3.789  21.798   9.803  1.00 18.64     0.024 A 
HETATM   57 CL1  1E9 A 201       4.078  21.441  12.485  1.00 25.72    -0.084 Cl
HETATM   58  C30 1E9 A 201       4.051  22.462   8.579  1.00 20.46     0.014 A 
ENDBRANCH  47  52
ENDBRANCH  45  46
ENDBRANCH  42  45
ENDBRANCH  32  39
ENDBRANCH  25  27
ENDBRANCH  22  25
ENDBRANCH  16  22
ENDBRANCH  11  13
ENDBRANCH   2  11
ENDBRANCH   1   2
BRANCH   1  59
HETATM   59  C3  1E9 A 201      21.351  31.448  18.534  1.00 33.21     0.273 C 
BRANCH  59  60
HETATM   60  N1  1E9 A 201      22.737  31.466  19.010  1.00 35.97     0.080 N 
HETATM   61  C6  1E9 A 201      23.635  31.195  17.892  1.00 32.92     0.309 C 
HETATM   62  C7  1E9 A 201      23.084  32.750  19.623  1.00 34.94     0.309 C 
ENDBRANCH  59  60
ENDBRANCH   1  59
TORSDOF 16
ENDMDL
