REMARK VINA RESULT:    -9.057      5.479      9.437
REMARK INTER + INTRA:         -19.568
REMARK INTER:                 -16.841
REMARK INTRA:                  -2.727
REMARK UNBOUND:                -2.040
REMARK  16 active torsions:
REMARK  status: ('A' for Active; 'I' for Inactive)
REMARK    1  A    between atoms: C1_1  and  C2_4 
REMARK    2  A    between atoms: C1_1  and  C3_6 
REMARK    3  A    between atoms: C2_4  and  C4_9 
REMARK    4  A    between atoms: C2_4  and  N2_33 
REMARK    5  A    between atoms: C3_6  and  N1_14 
REMARK    6  A    between atoms: C4_9  and  S1_12 
REMARK    7  A    between atoms: S1_12  and  C5_13 
REMARK    8  A    between atoms: N2_33  and  C17_41 
REMARK    9  A    between atoms: C14_37  and  S2_44 
REMARK   10  A    between atoms: C16_40  and  N7_102 
REMARK   11  A    between atoms: S2_44  and  N6_97 
REMARK   12  A    between atoms: C21_51  and  C25_57 
REMARK   13  A    between atoms: C22_52  and  C31_67 
REMARK   14  A    between atoms: C31_67  and  N3_70 
REMARK   15  A    between atoms: N4_77  and  C36_84 
REMARK   16  A    between atoms: C42_96  and  N6_97 
ROOT
HETATM    1  C1  1E9 A 201      20.618  18.086   4.621  1.00 31.62     0.056 C 
ENDROOT
BRANCH   1   2
HETATM    2  C2  1E9 A 201      20.582  17.540   6.065  1.00 26.22     0.093 C 
BRANCH   2   3
HETATM    3  C4  1E9 A 201      20.946  16.031   6.085  1.00 25.82     0.104 C 
BRANCH   3   4
HETATM    4  S1  1E9 A 201      19.920  14.920   7.122  1.00 29.66    -0.128 SA
BRANCH   4   5
HETATM    5  C5  1E9 A 201      18.776  14.123   6.053  1.00 22.11     0.000 A 
HETATM    6  C8  1E9 A 201      18.729  12.718   5.994  1.00 22.15     0.018 A 
HETATM    7  C9  1E9 A 201      17.804  12.098   5.130  1.00 19.48     0.001 A 
HETATM    8  C10 1E9 A 201      16.931  12.882   4.347  1.00 17.77     0.000 A 
HETATM    9  C11 1E9 A 201      16.984  14.289   4.412  1.00 21.70     0.001 A 
HETATM   10  C12 1E9 A 201      17.907  14.914   5.273  1.00 20.86     0.018 A 
ENDBRANCH   4   5
ENDBRANCH   3   4
ENDBRANCH   2   3
BRANCH   2  11
HETATM   11  N2  1E9 A 201      19.296  17.786   6.717  1.00 23.64    -0.383 N 
HETATM   12  H2  1E9 A 201      18.592  17.052   6.643  1.00  0.00     0.160 HD
BRANCH  11  13
HETATM   13  C17 1E9 A 201      18.952  18.896   7.410  1.00 22.61     0.061 A 
HETATM   14  C16 1E9 A 201      19.377  19.119   8.753  1.00 23.52     0.130 A 
HETATM   15  C15 1E9 A 201      18.977  20.302   9.411  1.00 21.63     0.063 A 
HETATM   16  C14 1E9 A 201      18.192  21.253   8.744  1.00 23.02     0.082 A 
HETATM   17  C13 1E9 A 201      17.778  21.060   7.419  1.00 21.77     0.028 A 
HETATM   18  C18 1E9 A 201      18.158  19.882   6.766  1.00 19.95     0.033 A 
BRANCH  14  19
HETATM   19  N7  1E9 A 201      20.190  18.156   9.524  1.00 25.21    -0.113 N 
HETATM   20  O5  1E9 A 201      21.302  18.512   9.901  1.00 29.38    -0.532 OA
HETATM   21  O6  1E9 A 201      19.711  17.065   9.800  1.00 22.75    -0.532 OA
ENDBRANCH  14  19
BRANCH  16  22
HETATM   22  S2  1E9 A 201      17.750  22.735   9.622  1.00 22.41     0.264 S 
HETATM   23  O1  1E9 A 201      18.660  23.814   9.210  1.00 23.80    -0.200 OA
HETATM   24  O2  1E9 A 201      17.494  22.403  11.039  1.00 22.92    -0.200 OA
BRANCH  22  25
HETATM   25  N6  1E9 A 201      16.247  23.230   9.005  1.00 19.56    -0.264 N 
HETATM   26  H6  1E9 A 201      15.943  22.860   8.105  1.00  0.00     0.180 HD
BRANCH  25  27
HETATM   27  C42 1E9 A 201      15.417  24.117   9.674  1.00 20.00     0.136 A 
HETATM   28  C40 1E9 A 201      13.979  24.125   9.355  1.00 19.63     0.033 A 
HETATM   29  C38 1E9 A 201      13.297  23.317   8.434  1.00 19.30     0.019 A 
HETATM   30  C41 1E9 A 201      13.313  25.070  10.120  1.00 16.72     0.096 A 
HETATM   31  C39 1E9 A 201      11.902  23.509   8.315  1.00 19.11     0.030 A 
HETATM   32  C36 1E9 A 201      11.208  24.472   9.106  1.00 18.75     0.031 A 
HETATM   33  C37 1E9 A 201      11.931  25.285  10.019  1.00 16.19     0.055 A 
HETATM   34  S3  1E9 A 201      14.503  25.870  11.132  1.00 18.06     0.265 S 
HETATM   35  N5  1E9 A 201      15.781  24.974  10.572  1.00 17.57    -0.264 N 
HETATM   36  O3  1E9 A 201      14.679  27.259  10.663  1.00 20.15    -0.200 OA
HETATM   37  O4  1E9 A 201      14.234  25.628  12.557  1.00 17.05    -0.200 OA
HETATM   38  H5  1E9 A 201      16.741  25.085  10.898  1.00  0.00     0.180 HD
BRANCH  32  39
HETATM   39  N4  1E9 A 201       9.867  24.590   8.956  1.00 20.11    -0.377 N 
HETATM   40  C33 1E9 A 201       8.968  23.447   9.225  1.00 21.29     0.153 C 
HETATM   41  C32 1E9 A 201       7.500  23.876   9.496  1.00 19.39     0.292 C 
HETATM   42  N3  1E9 A 201       7.035  24.675   8.352  1.00 22.93     0.095 N 
HETATM   43  C35 1E9 A 201       7.823  25.919   8.337  1.00 21.59     0.292 C 
HETATM   44  C34 1E9 A 201       9.278  25.526   7.989  1.00 20.66     0.153 C 
BRANCH  42  45
HETATM   45  C31 1E9 A 201       5.591  24.937   8.430  1.00 24.32     0.312 C 
BRANCH  45  46
HETATM   46  C22 1E9 A 201       4.823  23.617   8.429  1.00 23.38    -0.019 A 
HETATM   47  C21 1E9 A 201       4.168  23.131   9.602  1.00 19.94    -0.018 A 
HETATM   48  C20 1E9 A 201       3.489  21.889   9.541  1.00 21.54     0.013 A 
HETATM   49  C19 1E9 A 201       3.480  21.122   8.353  1.00 24.24     0.001 A 
HETATM   50  C24 1E9 A 201       4.154  21.600   7.206  1.00 26.65     0.001 A 
HETATM   51  C23 1E9 A 201       4.824  22.840   7.242  1.00 23.38     0.010 A 
BRANCH  47  52
HETATM   52  C25 1E9 A 201       4.083  23.819  10.909  1.00 21.83    -0.025 A 
HETATM   53  C26 1E9 A 201       4.559  23.210  12.098  1.00 22.31     0.014 A 
HETATM   54  C27 1E9 A 201       4.509  23.894  13.334  1.00 21.61     0.024 A 
HETATM   55  C28 1E9 A 201       3.990  25.202  13.389  1.00 21.37     0.034 A 
HETATM   56  C29 1E9 A 201       3.508  25.825  12.217  1.00 18.64     0.024 A 
HETATM   57 CL1  1E9 A 201       3.936  26.048  14.895  1.00 25.72    -0.084 Cl
HETATM   58  C30 1E9 A 201       3.563  25.137  10.979  1.00 20.46     0.014 A 
ENDBRANCH  47  52
ENDBRANCH  45  46
ENDBRANCH  42  45
ENDBRANCH  32  39
ENDBRANCH  25  27
ENDBRANCH  22  25
ENDBRANCH  16  22
ENDBRANCH  11  13
ENDBRANCH   2  11
ENDBRANCH   1   2
BRANCH   1  59
HETATM   59  C3  1E9 A 201      21.638  19.210   4.361  1.00 33.21     0.273 C 
BRANCH  59  60
HETATM   60  N1  1E9 A 201      22.913  18.899   5.013  1.00 35.97     0.080 N 
HETATM   61  C6  1E9 A 201      23.846  18.371   4.023  1.00 32.92     0.309 C 
HETATM   62  C7  1E9 A 201      23.494  20.079   5.658  1.00 34.94     0.309 C 
ENDBRANCH  59  60
ENDBRANCH   1  59
TORSDOF 16
