REMARK VINA RESULT:    -8.975      3.786     13.535
REMARK INTER + INTRA:         -19.409
REMARK INTER:                 -17.369
REMARK INTRA:                  -2.040
REMARK UNBOUND:                -2.040
REMARK  16 active torsions:
REMARK  status: ('A' for Active; 'I' for Inactive)
REMARK    1  A    between atoms: C1_1  and  C2_4 
REMARK    2  A    between atoms: C1_1  and  C3_6 
REMARK    3  A    between atoms: C2_4  and  C4_9 
REMARK    4  A    between atoms: C2_4  and  N2_33 
REMARK    5  A    between atoms: C3_6  and  N1_14 
REMARK    6  A    between atoms: C4_9  and  S1_12 
REMARK    7  A    between atoms: S1_12  and  C5_13 
REMARK    8  A    between atoms: N2_33  and  C17_41 
REMARK    9  A    between atoms: C14_37  and  S2_44 
REMARK   10  A    between atoms: C16_40  and  N7_102 
REMARK   11  A    between atoms: S2_44  and  N6_97 
REMARK   12  A    between atoms: C21_51  and  C25_57 
REMARK   13  A    between atoms: C22_52  and  C31_67 
REMARK   14  A    between atoms: C31_67  and  N3_70 
REMARK   15  A    between atoms: N4_77  and  C36_84 
REMARK   16  A    between atoms: C42_96  and  N6_97 
ROOT
HETATM    1  C1  1E9 A 201       4.392  24.466   7.497  1.00 31.62     0.056 C 
ENDROOT
BRANCH   1   2
HETATM    2  C2  1E9 A 201       5.718  24.218   8.247  1.00 26.22     0.093 C 
BRANCH   2   3
HETATM    3  C4  1E9 A 201       5.599  24.671   9.727  1.00 25.82     0.104 C 
BRANCH   3   4
HETATM    4  S1  1E9 A 201       4.026  25.450  10.257  1.00 29.66    -0.128 SA
BRANCH   4   5
HETATM    5  C5  1E9 A 201       3.988  25.399  12.013  1.00 22.11     0.000 A 
HETATM    6  C8  1E9 A 201       3.617  26.543  12.742  1.00 22.15     0.018 A 
HETATM    7  C9  1E9 A 201       3.592  26.482  14.149  1.00 19.48     0.001 A 
HETATM    8  C10 1E9 A 201       3.925  25.283  14.812  1.00 17.77     0.000 A 
HETATM    9  C11 1E9 A 201       4.297  24.140  14.075  1.00 21.70     0.001 A 
HETATM   10  C12 1E9 A 201       4.324  24.196  12.668  1.00 20.86     0.018 A 
ENDBRANCH   4   5
ENDBRANCH   3   4
ENDBRANCH   2   3
BRANCH   2  11
HETATM   11  N2  1E9 A 201       6.856  24.856   7.584  1.00 23.64    -0.383 N 
HETATM   12  H2  1E9 A 201       6.651  25.643   6.969  1.00  0.00     0.160 HD
BRANCH  11  13
HETATM   13  C17 1E9 A 201       8.155  24.500   7.711  1.00 22.61     0.061 A 
HETATM   14  C16 1E9 A 201       8.690  23.335   7.087  1.00 23.52     0.130 A 
HETATM   15  C15 1E9 A 201      10.057  23.028   7.265  1.00 21.63     0.063 A 
HETATM   16  C14 1E9 A 201      10.878  23.870   8.027  1.00 23.02     0.082 A 
HETATM   17  C13 1E9 A 201      10.375  25.029   8.635  1.00 21.77     0.028 A 
HETATM   18  C18 1E9 A 201       9.017  25.331   8.474  1.00 19.95     0.033 A 
BRANCH  14  19
HETATM   19  N7  1E9 A 201       7.884  22.392   6.285  1.00 25.21    -0.113 N 
HETATM   20  O5  1E9 A 201       7.213  22.846   5.363  1.00 29.38    -0.532 OA
HETATM   21  O6  1E9 A 201       7.949  21.196   6.535  1.00 22.75    -0.532 OA
ENDBRANCH  14  19
BRANCH  16  22
HETATM   22  S2  1E9 A 201      12.597  23.441   8.186  1.00 22.41     0.264 S 
HETATM   23  O1  1E9 A 201      13.316  23.938   7.002  1.00 23.80    -0.200 OA
HETATM   24  O2  1E9 A 201      12.708  22.046   8.661  1.00 22.92    -0.200 OA
BRANCH  22  25
HETATM   25  N6  1E9 A 201      13.215  24.391   9.450  1.00 19.56    -0.264 N 
HETATM   26  H6  1E9 A 201      12.621  24.577  10.257  1.00  0.00     0.180 HD
BRANCH  25  27
HETATM   27  C42 1E9 A 201      14.496  24.926   9.429  1.00 20.00     0.136 A 
HETATM   28  C40 1E9 A 201      15.087  25.404  10.689  1.00 19.63     0.033 A 
HETATM   29  C38 1E9 A 201      14.518  25.384  11.971  1.00 19.30     0.019 A 
HETATM   30  C41 1E9 A 201      16.364  25.900  10.474  1.00 16.72     0.096 A 
HETATM   31  C39 1E9 A 201      15.298  25.896  13.033  1.00 19.11     0.030 A 
HETATM   32  C36 1E9 A 201      16.615  26.398  12.820  1.00 18.75     0.031 A 
HETATM   33  C37 1E9 A 201      17.158  26.417  11.508  1.00 16.19     0.055 A 
HETATM   34  S3  1E9 A 201      16.707  25.758   8.759  1.00 18.06     0.265 S 
HETATM   35  N5  1E9 A 201      15.249  25.064   8.386  1.00 17.57    -0.264 N 
HETATM   36  O3  1E9 A 201      16.737  27.107   8.159  1.00 20.15    -0.200 OA
HETATM   37  O4  1E9 A 201      17.835  24.847   8.518  1.00 17.05    -0.200 OA
HETATM   38  H5  1E9 A 201      14.977  24.778   7.446  1.00  0.00     0.180 HD
BRANCH  32  39
HETATM   39  N4  1E9 A 201      17.315  26.855  13.886  1.00 20.11    -0.377 N 
HETATM   40  C33 1E9 A 201      16.864  26.579  15.267  1.00 21.29     0.153 C 
HETATM   41  C32 1E9 A 201      17.998  26.718  16.319  1.00 19.39     0.292 C 
HETATM   42  N3  1E9 A 201      18.577  28.063  16.196  1.00 22.93     0.095 N 
HETATM   43  C35 1E9 A 201      19.235  28.139  14.882  1.00 21.59     0.292 C 
HETATM   44  C34 1E9 A 201      18.117  28.084  13.815  1.00 20.66     0.153 C 
BRANCH  42  45
HETATM   45  C31 1E9 A 201      19.509  28.350  17.297  1.00 24.32     0.312 C 
BRANCH  45  46
HETATM   46  C22 1E9 A 201      20.838  28.849  16.733  1.00 23.38    -0.019 A 
HETATM   47  C21 1E9 A 201      21.058  30.231  16.445  1.00 19.94    -0.018 A 
HETATM   48  C20 1E9 A 201      22.306  30.627  15.905  1.00 21.54     0.013 A 
HETATM   49  C19 1E9 A 201      23.313  29.675  15.625  1.00 24.24     0.001 A 
HETATM   50  C24 1E9 A 201      23.076  28.306  15.890  1.00 26.65     0.001 A 
HETATM   51  C23 1E9 A 201      21.845  27.893  16.440  1.00 23.38     0.010 A 
BRANCH  47  52
HETATM   52  C25 1E9 A 201      20.109  31.340  16.688  1.00 21.83    -0.025 A 
HETATM   53  C26 1E9 A 201      20.114  32.063  17.908  1.00 22.31     0.014 A 
HETATM   54  C27 1E9 A 201      19.228  33.147  18.112  1.00 21.61     0.024 A 
HETATM   55  C28 1E9 A 201      18.335  33.523  17.091  1.00 21.37     0.034 A 
HETATM   56  C29 1E9 A 201      18.312  32.812  15.871  1.00 18.64     0.024 A 
HETATM   57 CL1  1E9 A 201      17.257  34.852  17.330  1.00 25.72    -0.084 Cl
HETATM   58  C30 1E9 A 201      19.203  31.729  15.668  1.00 20.46     0.014 A 
ENDBRANCH  47  52
ENDBRANCH  45  46
ENDBRANCH  42  45
ENDBRANCH  32  39
ENDBRANCH  25  27
ENDBRANCH  22  25
ENDBRANCH  16  22
ENDBRANCH  11  13
ENDBRANCH   2  11
ENDBRANCH   1   2
BRANCH   1  59
HETATM   59  C3  1E9 A 201       3.505  23.225   7.284  1.00 33.21     0.273 C 
BRANCH  59  60
HETATM   60  N1  1E9 A 201       4.228  22.012   7.678  1.00 35.97     0.080 N 
HETATM   61  C6  1E9 A 201       3.514  21.358   8.770  1.00 32.92     0.309 C 
HETATM   62  C7  1E9 A 201       4.376  21.081   6.558  1.00 34.94     0.309 C 
ENDBRANCH  59  60
ENDBRANCH   1  59
TORSDOF 16
