REMARK VINA RESULT:    -9.489      2.244      3.338
REMARK INTER + INTRA:         -20.405
REMARK INTER:                 -17.735
REMARK INTRA:                  -2.670
REMARK UNBOUND:                -2.040
REMARK  16 active torsions:
REMARK  status: ('A' for Active; 'I' for Inactive)
REMARK    1  A    between atoms: C1_1  and  C2_4 
REMARK    2  A    between atoms: C1_1  and  C3_6 
REMARK    3  A    between atoms: C2_4  and  C4_9 
REMARK    4  A    between atoms: C2_4  and  N2_33 
REMARK    5  A    between atoms: C3_6  and  N1_14 
REMARK    6  A    between atoms: C4_9  and  S1_12 
REMARK    7  A    between atoms: S1_12  and  C5_13 
REMARK    8  A    between atoms: N2_33  and  C17_41 
REMARK    9  A    between atoms: C14_37  and  S2_44 
REMARK   10  A    between atoms: C16_40  and  N7_102 
REMARK   11  A    between atoms: S2_44  and  N6_97 
REMARK   12  A    between atoms: C21_51  and  C25_57 
REMARK   13  A    between atoms: C22_52  and  C31_67 
REMARK   14  A    between atoms: C31_67  and  N3_70 
REMARK   15  A    between atoms: N4_77  and  C36_84 
REMARK   16  A    between atoms: C42_96  and  N6_97 
ROOT
HETATM    1  C1  1E9 A 201      15.279  26.514  14.727  1.00 31.62     0.056 C 
ENDROOT
BRANCH   1   2
HETATM    2  C2  1E9 A 201      16.805  26.517  14.956  1.00 26.22     0.093 C 
BRANCH   2   3
HETATM    3  C4  1E9 A 201      17.196  27.591  16.006  1.00 25.82     0.104 C 
BRANCH   3   4
HETATM    4  S1  1E9 A 201      17.953  29.146  15.395  1.00 29.66    -0.128 SA
BRANCH   4   5
HETATM    5  C5  1E9 A 201      19.568  29.240  16.081  1.00 22.11     0.000 A 
HETATM    6  C8  1E9 A 201      20.029  30.448  16.633  1.00 22.15     0.018 A 
HETATM    7  C9  1E9 A 201      21.327  30.503  17.178  1.00 19.48     0.001 A 
HETATM    8  C10 1E9 A 201      22.144  29.353  17.180  1.00 17.77     0.000 A 
HETATM    9  C11 1E9 A 201      21.675  28.145  16.624  1.00 21.70     0.001 A 
HETATM   10  C12 1E9 A 201      20.379  28.086  16.076  1.00 20.86     0.018 A 
ENDBRANCH   4   5
ENDBRANCH   3   4
ENDBRANCH   2   3
BRANCH   2  11
HETATM   11  N2  1E9 A 201      17.551  26.694  13.710  1.00 23.64    -0.383 N 
HETATM   12  H2  1E9 A 201      18.136  27.527  13.636  1.00  0.00     0.160 HD
BRANCH  11  13
HETATM   13  C17 1E9 A 201      17.538  25.858  12.646  1.00 22.61     0.061 A 
HETATM   14  C16 1E9 A 201      18.058  26.236  11.373  1.00 23.52     0.130 A 
HETATM   15  C15 1E9 A 201      18.009  25.309  10.310  1.00 21.63     0.063 A 
HETATM   16  C14 1E9 A 201      17.477  24.028  10.512  1.00 23.02     0.082 A 
HETATM   17  C13 1E9 A 201      16.976  23.631  11.760  1.00 21.77     0.028 A 
HETATM   18  C18 1E9 A 201      17.008  24.552  12.814  1.00 19.95     0.033 A 
BRANCH  14  19
HETATM   19  N7  1E9 A 201      18.618  27.572  11.082  1.00 25.21    -0.113 N 
HETATM   20  O5  1E9 A 201      19.450  28.031  11.858  1.00 29.38    -0.532 OA
HETATM   21  O6  1E9 A 201      18.271  28.148  10.060  1.00 22.75    -0.532 OA
ENDBRANCH  14  19
BRANCH  16  22
HETATM   22  S2  1E9 A 201      17.474  22.899   9.138  1.00 22.41     0.264 S 
HETATM   23  O1  1E9 A 201      17.676  21.535   9.651  1.00 23.80    -0.200 OA
HETATM   24  O2  1E9 A 201      18.283  23.467   8.039  1.00 22.92    -0.200 OA
BRANCH  22  25
HETATM   25  N6  1E9 A 201      15.883  22.865   8.546  1.00 19.56    -0.264 N 
HETATM   26  H6  1E9 A 201      15.462  21.962   8.327  1.00  0.00     0.180 HD
BRANCH  25  27
HETATM   27  C42 1E9 A 201      15.132  24.014   8.346  1.00 20.00     0.136 A 
HETATM   28  C40 1E9 A 201      13.667  23.938   8.472  1.00 19.63     0.033 A 
HETATM   29  C38 1E9 A 201      12.887  22.817   8.791  1.00 19.30     0.019 A 
HETATM   30  C41 1E9 A 201      13.091  25.178   8.241  1.00 16.72     0.096 A 
HETATM   31  C39 1E9 A 201      11.487  23.003   8.863  1.00 19.11     0.030 A 
HETATM   32  C36 1E9 A 201      10.889  24.277   8.638  1.00 18.75     0.031 A 
HETATM   33  C37 1E9 A 201      11.706  25.390   8.302  1.00 16.19     0.055 A 
HETATM   34  S3  1E9 A 201      14.384  26.305   7.872  1.00 18.06     0.265 S 
HETATM   35  N5  1E9 A 201      15.593  25.184   8.043  1.00 17.57    -0.264 N 
HETATM   36  O3  1E9 A 201      14.305  26.678   6.445  1.00 20.15    -0.200 OA
HETATM   37  O4  1E9 A 201      14.464  27.369   8.883  1.00 17.05    -0.200 OA
HETATM   38  H5  1E9 A 201      16.584  25.392   7.923  1.00  0.00     0.180 HD
BRANCH  32  39
HETATM   39  N4  1E9 A 201       9.543  24.389   8.742  1.00 20.11    -0.377 N 
HETATM   40  C33 1E9 A 201       8.870  25.692   8.542  1.00 21.29     0.153 C 
HETATM   41  C32 1E9 A 201       7.362  25.553   8.198  1.00 19.39     0.292 C 
HETATM   42  N3  1E9 A 201       6.718  24.768   9.261  1.00 22.93     0.095 N 
HETATM   43  C35 1E9 A 201       7.273  23.406   9.197  1.00 21.59     0.292 C 
HETATM   44  C34 1E9 A 201       8.759  23.504   9.614  1.00 20.66     0.153 C 
BRANCH  42  45
HETATM   45  C31 1E9 A 201       5.255  24.775   9.123  1.00 24.32     0.312 C 
BRANCH  45  46
HETATM   46  C22 1E9 A 201       4.656  23.604   9.900  1.00 23.38    -0.019 A 
HETATM   47  C21 1E9 A 201       4.114  22.462   9.232  1.00 19.94    -0.018 A 
HETATM   48  C20 1E9 A 201       3.555  21.417  10.009  1.00 21.54     0.013 A 
HETATM   49  C19 1E9 A 201       3.502  21.507  11.419  1.00 24.24     0.001 A 
HETATM   50  C24 1E9 A 201       4.018  22.653  12.068  1.00 26.65     0.001 A 
HETATM   51  C23 1E9 A 201       4.591  23.698  11.313  1.00 23.38     0.010 A 
BRANCH  47  52
HETATM   52  C25 1E9 A 201       4.103  22.222   7.772  1.00 21.83    -0.025 A 
HETATM   53  C26 1E9 A 201       3.582  23.182   6.869  1.00 22.31     0.014 A 
HETATM   54  C27 1E9 A 201       3.615  22.958   5.473  1.00 21.61     0.024 A 
HETATM   55  C28 1E9 A 201       4.179  21.771   4.968  1.00 21.37     0.034 A 
HETATM   56  C29 1E9 A 201       4.700  20.800   5.852  1.00 18.64     0.024 A 
HETATM   57 CL1  1E9 A 201       4.230  21.495   3.263  1.00 25.72    -0.084 Cl
HETATM   58  C30 1E9 A 201       4.669  21.030   7.250  1.00 20.46     0.014 A 
ENDBRANCH  47  52
ENDBRANCH  45  46
ENDBRANCH  42  45
ENDBRANCH  32  39
ENDBRANCH  25  27
ENDBRANCH  22  25
ENDBRANCH  16  22
ENDBRANCH  11  13
ENDBRANCH   2  11
ENDBRANCH   1   2
BRANCH   1  59
HETATM   59  C3  1E9 A 201      14.735  27.659  13.852  1.00 33.21     0.273 C 
BRANCH  59  60
HETATM   60  N1  1E9 A 201      14.176  27.124  12.607  1.00 35.97     0.080 N 
HETATM   61  C6  1E9 A 201      13.580  25.818  12.867  1.00 32.92     0.309 C 
HETATM   62  C7  1E9 A 201      13.170  28.021  12.035  1.00 34.94     0.309 C 
ENDBRANCH  59  60
ENDBRANCH   1  59
TORSDOF 16
