REMARK VINA RESULT:    -8.862      3.381      5.765
REMARK INTER + INTRA:         -19.191
REMARK INTER:                 -15.939
REMARK INTRA:                  -3.252
REMARK UNBOUND:                -2.040
REMARK  16 active torsions:
REMARK  status: ('A' for Active; 'I' for Inactive)
REMARK    1  A    between atoms: C1_1  and  C2_4 
REMARK    2  A    between atoms: C1_1  and  C3_6 
REMARK    3  A    between atoms: C2_4  and  C4_9 
REMARK    4  A    between atoms: C2_4  and  N2_33 
REMARK    5  A    between atoms: C3_6  and  N1_14 
REMARK    6  A    between atoms: C4_9  and  S1_12 
REMARK    7  A    between atoms: S1_12  and  C5_13 
REMARK    8  A    between atoms: N2_33  and  C17_41 
REMARK    9  A    between atoms: C14_37  and  S2_44 
REMARK   10  A    between atoms: C16_40  and  N7_102 
REMARK   11  A    between atoms: S2_44  and  N6_97 
REMARK   12  A    between atoms: C21_51  and  C25_57 
REMARK   13  A    between atoms: C22_52  and  C31_67 
REMARK   14  A    between atoms: C31_67  and  N3_70 
REMARK   15  A    between atoms: N4_77  and  C36_84 
REMARK   16  A    between atoms: C42_96  and  N6_97 
ROOT
HETATM    1  C1  1E9 A 201      20.976  30.575  17.474  1.00 31.62     0.056 C 
ENDROOT
BRANCH   1   2
HETATM    2  C2  1E9 A 201      21.618  29.245  17.925  1.00 26.22     0.093 C 
BRANCH   2   3
HETATM    3  C4  1E9 A 201      23.165  29.376  17.968  1.00 25.82     0.104 C 
BRANCH   3   4
HETATM    4  S1  1E9 A 201      23.968  29.455  19.615  1.00 29.66    -0.128 SA
BRANCH   4   5
HETATM    5  C5  1E9 A 201      22.948  30.453  20.641  1.00 22.11     0.000 A 
HETATM    6  C8  1E9 A 201      23.185  31.837  20.735  1.00 22.15     0.018 A 
HETATM    7  C9  1E9 A 201      22.356  32.620  21.562  1.00 19.48     0.001 A 
HETATM    8  C10 1E9 A 201      21.296  32.021  22.274  1.00 17.77     0.000 A 
HETATM    9  C11 1E9 A 201      21.065  30.634  22.175  1.00 21.70     0.001 A 
HETATM   10  C12 1E9 A 201      21.891  29.846  21.350  1.00 20.86     0.018 A 
ENDBRANCH   4   5
ENDBRANCH   3   4
ENDBRANCH   2   3
BRANCH   2  11
HETATM   11  N2  1E9 A 201      21.202  28.119  17.089  1.00 23.64    -0.383 N 
HETATM   12  H2  1E9 A 201      21.816  27.304  17.072  1.00  0.00     0.160 HD
BRANCH  11  13
HETATM   13  C17 1E9 A 201      20.081  28.056  16.334  1.00 22.61     0.061 A 
HETATM   14  C16 1E9 A 201      20.089  28.316  14.933  1.00 23.52     0.130 A 
HETATM   15  C15 1E9 A 201      18.878  28.231  14.212  1.00 21.63     0.063 A 
HETATM   16  C14 1E9 A 201      17.690  27.876  14.864  1.00 23.02     0.082 A 
HETATM   17  C13 1E9 A 201      17.663  27.600  16.239  1.00 21.77     0.028 A 
HETATM   18  C18 1E9 A 201      18.859  27.697  16.961  1.00 19.95     0.033 A 
BRANCH  14  19
HETATM   19  N7  1E9 A 201      21.298  28.713  14.181  1.00 25.21    -0.113 N 
HETATM   20  O5  1E9 A 201      22.269  27.963  14.212  1.00 29.38    -0.532 OA
HETATM   21  O6  1E9 A 201      21.273  29.742  13.521  1.00 22.75    -0.532 OA
ENDBRANCH  14  19
BRANCH  16  22
HETATM   22  S2  1E9 A 201      16.206  27.758  13.891  1.00 22.41     0.264 S 
HETATM   23  O1  1E9 A 201      16.302  28.707  12.772  1.00 23.80    -0.200 OA
HETATM   24  O2  1E9 A 201      15.036  27.702  14.793  1.00 22.92    -0.200 OA
BRANCH  22  25
HETATM   25  N6  1E9 A 201      16.250  26.242  13.127  1.00 19.56    -0.264 N 
HETATM   26  H6  1E9 A 201      16.445  25.416  13.691  1.00  0.00     0.180 HD
BRANCH  25  27
HETATM   27  C42 1E9 A 201      16.032  26.081  11.766  1.00 20.00     0.136 A 
HETATM   28  C40 1E9 A 201      14.708  25.632  11.306  1.00 19.63     0.033 A 
HETATM   29  C38 1E9 A 201      13.578  25.340  12.084  1.00 19.30     0.019 A 
HETATM   30  C41 1E9 A 201      14.679  25.531   9.923  1.00 16.72     0.096 A 
HETATM   31  C39 1E9 A 201      12.410  24.934  11.401  1.00 19.11     0.030 A 
HETATM   32  C36 1E9 A 201      12.369  24.838   9.979  1.00 18.75     0.031 A 
HETATM   33  C37 1E9 A 201      13.535  25.127   9.220  1.00 16.19     0.055 A 
HETATM   34  S3  1E9 A 201      16.268  25.969   9.324  1.00 18.06     0.265 S 
HETATM   35  N5  1E9 A 201      16.898  26.282  10.826  1.00 17.57    -0.264 N 
HETATM   36  O3  1E9 A 201      16.933  24.762   8.793  1.00 20.15    -0.200 OA
HETATM   37  O4  1E9 A 201      16.205  27.175   8.485  1.00 17.05    -0.200 OA
HETATM   38  H5  1E9 A 201      17.854  26.595  10.989  1.00  0.00     0.180 HD
BRANCH  32  39
HETATM   39  N4  1E9 A 201      11.210  24.462   9.387  1.00 20.11    -0.377 N 
HETATM   40  C33 1E9 A 201      10.287  25.467   8.816  1.00 21.29     0.153 C 
HETATM   41  C32 1E9 A 201       9.309  24.870   7.767  1.00 19.39     0.292 C 
HETATM   42  N3  1E9 A 201       8.580  23.760   8.396  1.00 22.93     0.095 N 
HETATM   43  C35 1E9 A 201       9.560  22.699   8.683  1.00 21.59     0.292 C 
HETATM   44  C34 1E9 A 201      10.499  23.240   9.786  1.00 20.66     0.153 C 
BRANCH  42  45
HETATM   45  C31 1E9 A 201       7.484  23.282   7.541  1.00 24.32     0.312 C 
BRANCH  45  46
HETATM   46  C22 1E9 A 201       6.224  23.077   8.379  1.00 23.38    -0.019 A 
HETATM   47  C21 1E9 A 201       5.015  22.579   7.803  1.00 19.94    -0.018 A 
HETATM   48  C20 1E9 A 201       3.874  22.430   8.630  1.00 21.54     0.013 A 
HETATM   49  C19 1E9 A 201       3.913  22.794   9.996  1.00 24.24     0.001 A 
HETATM   50  C24 1E9 A 201       5.107  23.310  10.550  1.00 26.65     0.001 A 
HETATM   51  C23 1E9 A 201       6.258  23.453   9.747  1.00 23.38     0.010 A 
BRANCH  47  52
HETATM   52  C25 1E9 A 201       4.822  22.152   6.400  1.00 21.83    -0.025 A 
HETATM   53  C26 1E9 A 201       5.179  20.849   5.968  1.00 22.31     0.014 A 
HETATM   54  C27 1E9 A 201       4.952  20.440   4.633  1.00 21.61     0.024 A 
HETATM   55  C28 1E9 A 201       4.356  21.331   3.720  1.00 21.37     0.034 A 
HETATM   56  C29 1E9 A 201       3.997  22.634   4.130  1.00 18.64     0.024 A 
HETATM   57 CL1  1E9 A 201       4.067  20.834   2.090  1.00 25.72    -0.084 Cl
HETATM   58  C30 1E9 A 201       4.222  23.039   5.469  1.00 20.46     0.014 A 
ENDBRANCH  47  52
ENDBRANCH  45  46
ENDBRANCH  42  45
ENDBRANCH  32  39
ENDBRANCH  25  27
ENDBRANCH  22  25
ENDBRANCH  16  22
ENDBRANCH  11  13
ENDBRANCH   2  11
ENDBRANCH   1   2
BRANCH   1  59
HETATM   59  C3  1E9 A 201      20.151  31.312  18.545  1.00 33.21     0.273 C 
BRANCH  59  60
HETATM   60  N1  1E9 A 201      20.185  32.758  18.305  1.00 35.97     0.080 N 
HETATM   61  C6  1E9 A 201      21.486  33.126  17.758  1.00 32.92     0.309 C 
HETATM   62  C7  1E9 A 201      19.126  33.180  17.386  1.00 34.94     0.309 C 
ENDBRANCH  59  60
ENDBRANCH   1  59
TORSDOF 16
