REMARK VINA RESULT:    -9.081      2.973      4.459
REMARK INTER + INTRA:         -19.615
REMARK INTER:                 -16.282
REMARK INTRA:                  -3.333
REMARK UNBOUND:                -2.040
REMARK  16 active torsions:
REMARK  status: ('A' for Active; 'I' for Inactive)
REMARK    1  A    between atoms: C1_1  and  C2_4 
REMARK    2  A    between atoms: C1_1  and  C3_6 
REMARK    3  A    between atoms: C2_4  and  C4_9 
REMARK    4  A    between atoms: C2_4  and  N2_33 
REMARK    5  A    between atoms: C3_6  and  N1_14 
REMARK    6  A    between atoms: C4_9  and  S1_12 
REMARK    7  A    between atoms: S1_12  and  C5_13 
REMARK    8  A    between atoms: N2_33  and  C17_41 
REMARK    9  A    between atoms: C14_37  and  S2_44 
REMARK   10  A    between atoms: C16_40  and  N7_102 
REMARK   11  A    between atoms: S2_44  and  N6_97 
REMARK   12  A    between atoms: C21_51  and  C25_57 
REMARK   13  A    between atoms: C22_52  and  C31_67 
REMARK   14  A    between atoms: C31_67  and  N3_70 
REMARK   15  A    between atoms: N4_77  and  C36_84 
REMARK   16  A    between atoms: C42_96  and  N6_97 
ROOT
HETATM    1  C1  1E9 A 201      13.587  25.837  10.073  1.00 31.62     0.056 C 
ENDROOT
BRANCH   1   2
HETATM    2  C2  1E9 A 201      14.810  26.177  10.950  1.00 26.22     0.093 C 
BRANCH   2   3
HETATM    3  C4  1E9 A 201      14.620  27.556  11.638  1.00 25.82     0.104 C 
BRANCH   3   4
HETATM    4  S1  1E9 A 201      14.304  27.572  13.444  1.00 29.66    -0.128 SA
BRANCH   4   5
HETATM    5  C5  1E9 A 201      15.435  26.445  14.178  1.00 22.11     0.000 A 
HETATM    6  C8  1E9 A 201      16.652  26.913  14.706  1.00 22.15     0.018 A 
HETATM    7  C9  1E9 A 201      17.545  25.994  15.290  1.00 19.48     0.001 A 
HETATM    8  C10 1E9 A 201      17.212  24.625  15.354  1.00 17.77     0.000 A 
HETATM    9  C11 1E9 A 201      15.991  24.163  14.822  1.00 21.70     0.001 A 
HETATM   10  C12 1E9 A 201      15.095  25.077  14.236  1.00 20.86     0.018 A 
ENDBRANCH   4   5
ENDBRANCH   3   4
ENDBRANCH   2   3
BRANCH   2  11
HETATM   11  N2  1E9 A 201      16.063  26.126  10.196  1.00 23.64    -0.383 N 
HETATM   12  H2  1E9 A 201      16.908  26.422  10.684  1.00  0.00     0.160 HD
BRANCH  11  13
HETATM   13  C17 1E9 A 201      16.206  25.724   8.913  1.00 22.61     0.061 A 
HETATM   14  C16 1E9 A 201      16.596  24.396   8.569  1.00 23.52     0.130 A 
HETATM   15  C15 1E9 A 201      16.724  24.050   7.206  1.00 21.63     0.063 A 
HETATM   16  C14 1E9 A 201      16.450  24.995   6.207  1.00 23.02     0.082 A 
HETATM   17  C13 1E9 A 201      16.050  26.300   6.524  1.00 21.77     0.028 A 
HETATM   18  C18 1E9 A 201      15.935  26.653   7.874  1.00 19.95     0.033 A 
BRANCH  14  19
HETATM   19  N7  1E9 A 201      16.917  23.353   9.565  1.00 25.21    -0.113 N 
HETATM   20  O5  1E9 A 201      16.495  22.218   9.368  1.00 29.38    -0.532 OA
HETATM   21  O6  1E9 A 201      17.625  23.644  10.519  1.00 22.75    -0.532 OA
ENDBRANCH  14  19
BRANCH  16  22
HETATM   22  S2  1E9 A 201      16.602  24.484   4.510  1.00 22.41     0.264 S 
HETATM   23  O1  1E9 A 201      16.437  23.024   4.443  1.00 23.80    -0.200 OA
HETATM   24  O2  1E9 A 201      17.745  25.188   3.891  1.00 22.92    -0.200 OA
BRANCH  22  25
HETATM   25  N6  1E9 A 201      15.229  25.074   3.705  1.00 19.56    -0.264 N 
HETATM   26  H6  1E9 A 201      15.231  26.040   3.379  1.00  0.00     0.180 HD
BRANCH  25  27
HETATM   27  C42 1E9 A 201      14.103  24.296   3.473  1.00 20.00     0.136 A 
HETATM   28  C40 1E9 A 201      12.931  24.461   4.348  1.00 19.63     0.033 A 
HETATM   29  C38 1E9 A 201      12.779  25.343   5.427  1.00 19.30     0.019 A 
HETATM   30  C41 1E9 A 201      11.909  23.606   3.964  1.00 16.72     0.096 A 
HETATM   31  C39 1E9 A 201      11.543  25.320   6.112  1.00 19.11     0.030 A 
HETATM   32  C36 1E9 A 201      10.484  24.451   5.716  1.00 18.75     0.031 A 
HETATM   33  C37 1E9 A 201      10.675  23.560   4.626  1.00 16.19     0.055 A 
HETATM   34  S3  1E9 A 201      12.484  22.672   2.594  1.00 18.06     0.265 S 
HETATM   35  N5  1E9 A 201      13.970  23.405   2.544  1.00 17.57    -0.264 N 
HETATM   36  O3  1E9 A 201      12.680  21.270   3.014  1.00 20.15    -0.200 OA
HETATM   37  O4  1E9 A 201      11.686  22.950   1.391  1.00 17.05    -0.200 OA
HETATM   38  H5  1E9 A 201      14.694  23.180   1.862  1.00  0.00     0.180 HD
BRANCH  32  39
HETATM   39  N4  1E9 A 201       9.317  24.495   6.403  1.00 20.11    -0.377 N 
HETATM   40  C33 1E9 A 201       8.745  23.273   7.008  1.00 21.29     0.153 C 
HETATM   41  C32 1E9 A 201       7.729  23.573   8.144  1.00 19.39     0.292 C 
HETATM   42  N3  1E9 A 201       6.682  24.453   7.605  1.00 22.93     0.095 N 
HETATM   43  C35 1E9 A 201       7.316  25.741   7.280  1.00 21.59     0.292 C 
HETATM   44  C34 1E9 A 201       8.276  25.485   6.095  1.00 20.66     0.153 C 
BRANCH  42  45
HETATM   45  C31 1E9 A 201       5.569  24.609   8.553  1.00 24.32     0.312 C 
BRANCH  45  46
HETATM   46  C22 1E9 A 201       4.704  23.350   8.548  1.00 23.38    -0.019 A 
HETATM   47  C21 1E9 A 201       4.016  22.911   9.721  1.00 19.94    -0.018 A 
HETATM   48  C20 1E9 A 201       3.245  21.724   9.657  1.00 21.54     0.013 A 
HETATM   49  C19 1E9 A 201       3.175  20.964   8.467  1.00 24.24     0.001 A 
HETATM   50  C24 1E9 A 201       3.881  21.394   7.319  1.00 26.65     0.001 A 
HETATM   51  C23 1E9 A 201       4.643  22.580   7.358  1.00 23.38     0.010 A 
BRANCH  47  52
HETATM   52  C25 1E9 A 201       3.987  23.598  11.031  1.00 21.83    -0.025 A 
HETATM   53  C26 1E9 A 201       4.412  22.948  12.217  1.00 22.31     0.014 A 
HETATM   54  C27 1E9 A 201       4.417  23.630  13.456  1.00 21.61     0.024 A 
HETATM   55  C28 1E9 A 201       4.004  24.975  13.516  1.00 21.37     0.034 A 
HETATM   56  C29 1E9 A 201       3.573  25.638  12.347  1.00 18.64     0.024 A 
HETATM   57 CL1  1E9 A 201       4.017  25.816  15.025  1.00 25.72    -0.084 Cl
HETATM   58  C30 1E9 A 201       3.572  24.953  11.107  1.00 20.46     0.014 A 
ENDBRANCH  47  52
ENDBRANCH  45  46
ENDBRANCH  42  45
ENDBRANCH  32  39
ENDBRANCH  25  27
ENDBRANCH  22  25
ENDBRANCH  16  22
ENDBRANCH  11  13
ENDBRANCH   2  11
ENDBRANCH   1   2
BRANCH   1  59
HETATM   59  C3  1E9 A 201      12.824  24.557  10.461  1.00 33.21     0.273 C 
BRANCH  59  60
HETATM   60  N1  1E9 A 201      12.058  24.055   9.317  1.00 35.97     0.080 N 
HETATM   61  C6  1E9 A 201      12.853  23.063   8.601  1.00 32.92     0.309 C 
HETATM   62  C7  1E9 A 201      10.786  23.461   9.734  1.00 34.94     0.309 C 
ENDBRANCH  59  60
ENDBRANCH   1  59
TORSDOF 16
