REMARK VINA RESULT:    -9.562      0.000      0.000
REMARK INTER + INTRA:         -20.546
REMARK INTER:                 -17.654
REMARK INTRA:                  -2.892
REMARK UNBOUND:                -2.040
REMARK  16 active torsions:
REMARK  status: ('A' for Active; 'I' for Inactive)
REMARK    1  A    between atoms: C1_1  and  C2_4 
REMARK    2  A    between atoms: C1_1  and  C3_6 
REMARK    3  A    between atoms: C2_4  and  C4_9 
REMARK    4  A    between atoms: C2_4  and  N2_33 
REMARK    5  A    between atoms: C3_6  and  N1_14 
REMARK    6  A    between atoms: C4_9  and  S1_12 
REMARK    7  A    between atoms: S1_12  and  C5_13 
REMARK    8  A    between atoms: N2_33  and  C17_41 
REMARK    9  A    between atoms: C14_37  and  S2_44 
REMARK   10  A    between atoms: C16_40  and  N7_102 
REMARK   11  A    between atoms: S2_44  and  N6_97 
REMARK   12  A    between atoms: C21_51  and  C25_57 
REMARK   13  A    between atoms: C22_52  and  C31_67 
REMARK   14  A    between atoms: C31_67  and  N3_70 
REMARK   15  A    between atoms: N4_77  and  C36_84 
REMARK   16  A    between atoms: C42_96  and  N6_97 
ROOT
HETATM    1  C1  1E9 A 201      15.439  27.309  14.580  1.00 31.62     0.056 C 
ENDROOT
BRANCH   1   2
HETATM    2  C2  1E9 A 201      16.800  26.583  14.529  1.00 26.22     0.093 C 
BRANCH   2   3
HETATM    3  C4  1E9 A 201      17.572  26.781  15.862  1.00 25.82     0.104 C 
BRANCH   3   4
HETATM    4  S1  1E9 A 201      19.058  27.855  15.835  1.00 29.66    -0.128 SA
BRANCH   4   5
HETATM    5  C5  1E9 A 201      19.428  28.269  17.502  1.00 22.11     0.000 A 
HETATM    6  C8  1E9 A 201      20.390  29.256  17.786  1.00 22.15     0.018 A 
HETATM    7  C9  1E9 A 201      20.672  29.573  19.129  1.00 19.48     0.001 A 
HETATM    8  C10 1E9 A 201      19.986  28.917  20.172  1.00 17.77     0.000 A 
HETATM    9  C11 1E9 A 201      19.023  27.929  19.880  1.00 21.70     0.001 A 
HETATM   10  C12 1E9 A 201      18.739  27.606  18.539  1.00 20.86     0.018 A 
ENDBRANCH   4   5
ENDBRANCH   3   4
ENDBRANCH   2   3
BRANCH   2  11
HETATM   11  N2  1E9 A 201      17.606  26.999  13.381  1.00 23.64    -0.383 N 
HETATM   12  H2  1E9 A 201      18.113  27.880  13.466  1.00  0.00     0.160 HD
BRANCH  11  13
HETATM   13  C17 1E9 A 201      17.743  26.323  12.216  1.00 22.61     0.061 A 
HETATM   14  C16 1E9 A 201      18.388  26.890  11.078  1.00 23.52     0.130 A 
HETATM   15  C15 1E9 A 201      18.493  26.124   9.897  1.00 21.63     0.063 A 
HETATM   16  C14 1E9 A 201      17.988  24.817   9.854  1.00 23.02     0.082 A 
HETATM   17  C13 1E9 A 201      17.366  24.235  10.967  1.00 21.77     0.028 A 
HETATM   18  C18 1E9 A 201      17.246  24.996  12.137  1.00 19.95     0.033 A 
BRANCH  14  19
HETATM   19  N7  1E9 A 201      18.928  28.265  11.043  1.00 25.21    -0.113 N 
HETATM   20  O5  1E9 A 201      18.350  29.129  11.695  1.00 29.38    -0.532 OA
HETATM   21  O6  1E9 A 201      19.951  28.483  10.409  1.00 22.75    -0.532 OA
ENDBRANCH  14  19
BRANCH  16  22
HETATM   22  S2  1E9 A 201      18.180  23.896   8.344  1.00 22.41     0.264 S 
HETATM   23  O1  1E9 A 201      18.780  22.592   8.663  1.00 23.80    -0.200 OA
HETATM   24  O2  1E9 A 201      18.719  24.788   7.296  1.00 22.92    -0.200 OA
BRANCH  22  25
HETATM   25  N6  1E9 A 201      16.615  23.493   7.823  1.00 19.56    -0.264 N 
HETATM   26  H6  1E9 A 201      16.397  22.514   7.644  1.00  0.00     0.180 HD
BRANCH  25  27
HETATM   27  C42 1E9 A 201      15.621  24.442   7.632  1.00 20.00     0.136 A 
HETATM   28  C40 1E9 A 201      14.213  24.038   7.785  1.00 19.63     0.033 A 
HETATM   29  C38 1E9 A 201      13.712  22.773   8.124  1.00 19.30     0.019 A 
HETATM   30  C41 1E9 A 201      13.368  25.114   7.558  1.00 16.72     0.096 A 
HETATM   31  C39 1E9 A 201      12.308  22.639   8.220  1.00 19.11     0.030 A 
HETATM   32  C36 1E9 A 201      11.434  23.743   7.999  1.00 18.75     0.031 A 
HETATM   33  C37 1E9 A 201      11.973  25.008   7.643  1.00 16.19     0.055 A 
HETATM   34  S3  1E9 A 201      14.367  26.500   7.159  1.00 18.06     0.265 S 
HETATM   35  N5  1E9 A 201      15.801  25.683   7.314  1.00 17.57    -0.264 N 
HETATM   36  O3  1E9 A 201      14.182  26.833   5.732  1.00 20.15    -0.200 OA
HETATM   37  O4  1E9 A 201      14.221  27.564   8.163  1.00 17.05    -0.200 OA
HETATM   38  H5  1E9 A 201      16.717  26.108   7.175  1.00  0.00     0.180 HD
BRANCH  32  39
HETATM   39  N4  1E9 A 201      10.099  23.549   8.128  1.00 20.11    -0.377 N 
HETATM   40  C33 1E9 A 201       9.296  23.020   7.004  1.00 21.29     0.153 C 
HETATM   41  C32 1E9 A 201       7.947  22.398   7.457  1.00 19.39     0.292 C 
HETATM   42  N3  1E9 A 201       7.207  23.411   8.223  1.00 22.93     0.095 N 
HETATM   43  C35 1E9 A 201       7.967  23.669   9.457  1.00 21.59     0.292 C 
HETATM   44  C34 1E9 A 201       9.284  24.364   9.038  1.00 20.66     0.153 C 
BRANCH  42  45
HETATM   45  C31 1E9 A 201       5.832  22.975   8.503  1.00 24.32     0.312 C 
BRANCH  45  46
HETATM   46  C22 1E9 A 201       4.840  23.986   7.931  1.00 23.38    -0.019 A 
HETATM   47  C21 1E9 A 201       4.044  24.816   8.779  1.00 19.94    -0.018 A 
HETATM   48  C20 1E9 A 201       3.129  25.720   8.186  1.00 21.54     0.013 A 
HETATM   49  C19 1E9 A 201       2.977  25.787   6.782  1.00 24.24     0.001 A 
HETATM   50  C24 1E9 A 201       3.751  24.942   5.953  1.00 26.65     0.001 A 
HETATM   51  C23 1E9 A 201       4.678  24.045   6.523  1.00 23.38     0.010 A 
BRANCH  47  52
HETATM   52  C25 1E9 A 201       4.095  24.866  10.256  1.00 21.83    -0.025 A 
HETATM   53  C26 1E9 A 201       3.732  26.037  10.970  1.00 22.31     0.014 A 
HETATM   54  C27 1E9 A 201       3.747  26.058  12.384  1.00 21.61     0.024 A 
HETATM   55  C28 1E9 A 201       4.116  24.902  13.098  1.00 21.37     0.034 A 
HETATM   56  C29 1E9 A 201       4.485  23.728  12.405  1.00 18.64     0.024 A 
HETATM   57 CL1  1E9 A 201       4.127  24.919  14.825  1.00 25.72    -0.084 Cl
HETATM   58  C30 1E9 A 201       4.466  23.709  10.989  1.00 20.46     0.014 A 
ENDBRANCH  47  52
ENDBRANCH  45  46
ENDBRANCH  42  45
ENDBRANCH  32  39
ENDBRANCH  25  27
ENDBRANCH  22  25
ENDBRANCH  16  22
ENDBRANCH  11  13
ENDBRANCH   2  11
ENDBRANCH   1   2
BRANCH   1  59
HETATM   59  C3  1E9 A 201      14.261  26.558  13.932  1.00 33.21     0.273 C 
BRANCH  59  60
HETATM   60  N1  1E9 A 201      13.725  27.330  12.806  1.00 35.97     0.080 N 
HETATM   61  C6  1E9 A 201      14.257  28.687  12.855  1.00 32.92     0.309 C 
HETATM   62  C7  1E9 A 201      14.058  26.715  11.520  1.00 34.94     0.309 C 
ENDBRANCH  59  60
ENDBRANCH   1  59
TORSDOF 16
