REMARK VINA RESULT:    -9.109      5.100      8.145
REMARK INTER + INTRA:         -19.670
REMARK INTER:                 -16.716
REMARK INTRA:                  -2.954
REMARK UNBOUND:                -2.040
REMARK  16 active torsions:
REMARK  status: ('A' for Active; 'I' for Inactive)
REMARK    1  A    between atoms: C1_1  and  C2_4 
REMARK    2  A    between atoms: C1_1  and  C3_6 
REMARK    3  A    between atoms: C2_4  and  C4_9 
REMARK    4  A    between atoms: C2_4  and  N2_33 
REMARK    5  A    between atoms: C3_6  and  N1_14 
REMARK    6  A    between atoms: C4_9  and  S1_12 
REMARK    7  A    between atoms: S1_12  and  C5_13 
REMARK    8  A    between atoms: N2_33  and  C17_41 
REMARK    9  A    between atoms: C14_37  and  S2_44 
REMARK   10  A    between atoms: C16_40  and  N7_102 
REMARK   11  A    between atoms: S2_44  and  N6_97 
REMARK   12  A    between atoms: C21_51  and  C25_57 
REMARK   13  A    between atoms: C22_52  and  C31_67 
REMARK   14  A    between atoms: C31_67  and  N3_70 
REMARK   15  A    between atoms: N4_77  and  C36_84 
REMARK   16  A    between atoms: C42_96  and  N6_97 
ROOT
HETATM    1  C1  1E9 A 201      21.181  18.200   4.835  1.00 31.62     0.056 C 
ENDROOT
BRANCH   1   2
HETATM    2  C2  1E9 A 201      20.875  17.876   6.313  1.00 26.22     0.093 C 
BRANCH   2   3
HETATM    3  C4  1E9 A 201      21.224  16.397   6.630  1.00 25.82     0.104 C 
BRANCH   3   4
HETATM    4  S1  1E9 A 201      22.996  15.957   6.804  1.00 29.66    -0.128 SA
BRANCH   4   5
HETATM    5  C5  1E9 A 201      23.597  16.786   8.232  1.00 22.11     0.000 A 
HETATM    6  C8  1E9 A 201      23.692  16.101   9.456  1.00 22.15     0.018 A 
HETATM    7  C9  1E9 A 201      24.177  16.783  10.589  1.00 19.48     0.001 A 
HETATM    8  C10 1E9 A 201      24.573  18.133  10.488  1.00 17.77     0.000 A 
HETATM    9  C11 1E9 A 201      24.474  18.814   9.257  1.00 21.70     0.001 A 
HETATM   10  C12 1E9 A 201      23.989  18.137   8.122  1.00 20.86     0.018 A 
ENDBRANCH   4   5
ENDBRANCH   3   4
ENDBRANCH   2   3
BRANCH   2  11
HETATM   11  N2  1E9 A 201      19.490  18.185   6.671  1.00 23.64    -0.383 N 
HETATM   12  H2  1E9 A 201      18.773  17.536   6.348  1.00  0.00     0.160 HD
BRANCH  11  13
HETATM   13  C17 1E9 A 201      19.071  19.251   7.392  1.00 22.61     0.061 A 
HETATM   14  C16 1E9 A 201      19.237  19.328   8.806  1.00 23.52     0.130 A 
HETATM   15  C15 1E9 A 201      18.774  20.473   9.489  1.00 21.63     0.063 A 
HETATM   16  C14 1E9 A 201      18.179  21.527   8.783  1.00 23.02     0.082 A 
HETATM   17  C13 1E9 A 201      18.022  21.479   7.390  1.00 21.77     0.028 A 
HETATM   18  C18 1E9 A 201      18.466  20.339   6.709  1.00 19.95     0.033 A 
BRANCH  14  19
HETATM   19  N7  1E9 A 201      19.837  18.250   9.619  1.00 25.21    -0.113 N 
HETATM   20  O5  1E9 A 201      19.182  17.228   9.796  1.00 29.38    -0.532 OA
HETATM   21  O6  1E9 A 201      20.975  18.394  10.044  1.00 22.75    -0.532 OA
ENDBRANCH  14  19
BRANCH  16  22
HETATM   22  S2  1E9 A 201      17.646  22.953   9.702  1.00 22.41     0.264 S 
HETATM   23  O1  1E9 A 201      18.516  24.088   9.355  1.00 23.80    -0.200 OA
HETATM   24  O2  1E9 A 201      17.369  22.556  11.098  1.00 22.92    -0.200 OA
BRANCH  22  25
HETATM   25  N6  1E9 A 201      16.139  23.403   9.061  1.00 19.56    -0.264 N 
HETATM   26  H6  1E9 A 201      15.855  23.014   8.162  1.00  0.00     0.180 HD
BRANCH  25  27
HETATM   27  C42 1E9 A 201      15.278  24.276   9.710  1.00 20.00     0.136 A 
HETATM   28  C40 1E9 A 201      13.845  24.245   9.374  1.00 19.63     0.033 A 
HETATM   29  C38 1E9 A 201      13.194  23.409   8.455  1.00 19.30     0.019 A 
HETATM   30  C41 1E9 A 201      13.147  25.182  10.120  1.00 16.72     0.096 A 
HETATM   31  C39 1E9 A 201      11.796  23.566   8.316  1.00 19.11     0.030 A 
HETATM   32  C36 1E9 A 201      11.070  24.519   9.088  1.00 18.75     0.031 A 
HETATM   33  C37 1E9 A 201      11.761  25.360  10.000  1.00 16.19     0.055 A 
HETATM   34  S3  1E9 A 201      14.303  26.022  11.137  1.00 18.06     0.265 S 
HETATM   35  N5  1E9 A 201      15.610  25.152  10.603  1.00 17.57    -0.264 N 
HETATM   36  O3  1E9 A 201      14.451  27.410  10.654  1.00 20.15    -0.200 OA
HETATM   37  O4  1E9 A 201      14.024  25.789  12.561  1.00 17.05    -0.200 OA
HETATM   38  H5  1E9 A 201      16.563  25.290  10.939  1.00  0.00     0.180 HD
BRANCH  32  39
HETATM   39  N4  1E9 A 201       9.728  24.603   8.920  1.00 20.11    -0.377 N 
HETATM   40  C33 1E9 A 201       8.846  23.468   9.270  1.00 21.29     0.153 C 
HETATM   41  C32 1E9 A 201       7.369  23.891   9.497  1.00 19.39     0.292 C 
HETATM   42  N3  1E9 A 201       6.900  24.591   8.293  1.00 22.93     0.095 N 
HETATM   43  C35 1E9 A 201       7.666  25.844   8.188  1.00 21.59     0.292 C 
HETATM   44  C34 1E9 A 201       9.130  25.452   7.880  1.00 20.66     0.153 C 
BRANCH  42  45
HETATM   45  C31 1E9 A 201       5.451  24.834   8.342  1.00 24.32     0.312 C 
BRANCH  45  46
HETATM   46  C22 1E9 A 201       4.706  23.504   8.434  1.00 23.38    -0.019 A 
HETATM   47  C21 1E9 A 201       4.094  23.072   9.651  1.00 19.94    -0.018 A 
HETATM   48  C20 1E9 A 201       3.434  21.818   9.677  1.00 21.54     0.013 A 
HETATM   49  C19 1E9 A 201       3.402  20.988   8.532  1.00 24.24     0.001 A 
HETATM   50  C24 1E9 A 201       4.033  21.415   7.340  1.00 26.65     0.001 A 
HETATM   51  C23 1E9 A 201       4.683  22.665   7.290  1.00 23.38     0.010 A 
BRANCH  47  52
HETATM   52  C25 1E9 A 201       4.038  23.827  10.921  1.00 21.83    -0.025 A 
HETATM   53  C26 1E9 A 201       3.733  25.212  10.946  1.00 22.31     0.014 A 
HETATM   54  C27 1E9 A 201       3.643  25.913  12.171  1.00 21.61     0.024 A 
HETATM   55  C28 1E9 A 201       3.848  25.230  13.385  1.00 21.37     0.034 A 
HETATM   56  C29 1E9 A 201       4.156  23.852  13.381  1.00 18.64     0.024 A 
HETATM   57 CL1  1E9 A 201       3.730  26.080  14.885  1.00 25.72    -0.084 Cl
HETATM   58  C30 1E9 A 201       4.242  23.152  12.153  1.00 20.46     0.014 A 
ENDBRANCH  47  52
ENDBRANCH  45  46
ENDBRANCH  42  45
ENDBRANCH  32  39
ENDBRANCH  25  27
ENDBRANCH  22  25
ENDBRANCH  16  22
ENDBRANCH  11  13
ENDBRANCH   2  11
ENDBRANCH   1   2
BRANCH   1  59
HETATM   59  C3  1E9 A 201      22.401  19.107   4.591  1.00 33.21     0.273 C 
BRANCH  59  60
HETATM   60  N1  1E9 A 201      21.964  20.472   4.282  1.00 35.97     0.080 N 
HETATM   61  C6  1E9 A 201      20.660  20.425   3.628  1.00 32.92     0.309 C 
HETATM   62  C7  1E9 A 201      21.882  21.302   5.486  1.00 34.94     0.309 C 
ENDBRANCH  59  60
ENDBRANCH   1  59
TORSDOF 16
