REMARK  4 active torsions:
REMARK  status: ('A' for Active; 'I' for Inactive)
REMARK       I    between atoms: C21_6  and  N20_49 
REMARK    1  A    between atoms: C28_11  and  C25_41 
REMARK    2  A    between atoms: C02_14  and  N03_47 
REMARK    3  A    between atoms: C12_27  and  S09_53 
REMARK    4  A    between atoms: N06_48  and  S09_53 
ROOT
HETATM    1  C04 OKV A 303     -12.987 -38.112  -5.157  1.00 47.42     0.138 C 
HETATM    2  C05 OKV A 303     -11.957 -37.871  -6.258  1.00 51.69     0.127 C 
HETATM    3  C07 OKV A 303     -10.338 -39.240  -5.074  1.00 44.32     0.127 C 
HETATM    4  C08 OKV A 303     -11.348 -39.509  -3.965  1.00 48.31     0.138 C 
HETATM    5  N03 OKV A 303     -12.327 -38.405  -3.866  1.00 52.74    -0.379 N 
HETATM    6  N06 OKV A 303     -10.999 -38.959  -6.336  1.00 54.64    -0.203 NA
ENDROOT
BRANCH   6   7
HETATM    7  S09 OKV A 303      -9.823 -38.628  -7.525  1.00 49.23     0.243 S 
HETATM    8  O10 OKV A 303      -8.790 -39.658  -7.447  1.00 58.03    -0.206 OA
HETATM    9  O11 OKV A 303     -10.441 -38.642  -8.853  1.00 49.45    -0.206 OA
BRANCH   7  10
HETATM   10  C12 OKV A 303      -9.058 -37.015  -7.222  1.00 51.52     0.075 A 
HETATM   11  C13 OKV A 303      -7.945 -36.925  -6.376  1.00 49.88     0.027 A 
HETATM   12  C14 OKV A 303      -7.351 -35.692  -6.138  1.00 56.64     0.032 A 
HETATM   13  C15 OKV A 303      -7.873 -34.539  -6.754  1.00 56.21     0.043 A 
HETATM   14  C16 OKV A 303      -8.970 -34.623  -7.592  1.00 55.62    -0.028 A 
HETATM   15  N20 OKV A 303      -7.440 -33.108  -6.679  1.00 58.72    -0.318 N 
HETATM   16  C17 OKV A 303      -9.571 -35.872  -7.831  1.00 55.92     0.034 A 
HETATM   17  C18 OKV A 303      -9.328 -33.244  -8.119  1.00 58.10     0.061 A 
HETATM   18  C19 OKV A 303      -8.358 -32.295  -7.469  1.00 58.11     0.137 A 
HETATM   19  C21 OKV A 303      -6.301 -32.582  -5.953  1.00 58.85     0.220 C 
HETATM   20  C23 OKV A 303      -6.032 -31.076  -6.009  1.00 52.50     0.117 C 
HETATM   21  O22 OKV A 303      -5.596 -33.303  -5.331  1.00 54.84    -0.273 OA
ENDBRANCH   7  10
ENDBRANCH   6   7
BRANCH   5  22
HETATM   22  C02 OKV A 303     -13.054 -38.243  -2.683  1.00 50.58     0.030 A 
HETATM   23  C24 OKV A 303     -14.249 -37.545  -2.703  1.00 51.10     0.045 A 
HETATM   24  C25 OKV A 303     -14.972 -37.379  -1.535  1.00 53.61     0.050 A 
HETATM   25  C26 OKV A 303     -14.498 -37.907  -0.346  1.00 54.72     0.016 A 
HETATM   26  C27 OKV A 303     -13.301 -38.604  -0.325  1.00 55.67     0.003 A 
HETATM   27  C01 OKV A 303     -12.578 -38.771  -1.496  1.00 50.66     0.029 A 
BRANCH  24  28
HETATM   28  C28 OKV A 303     -16.292 -36.608  -1.562  1.00 58.62     0.417 C 
HETATM   29  F29 OKV A 303     -16.039 -35.304  -1.618  1.00 60.82    -0.166 F 
HETATM   30  F30 OKV A 303     -16.987 -36.882  -0.461  1.00 66.37    -0.166 F 
HETATM   31  F31 OKV A 303     -16.997 -36.967  -2.632  1.00 57.87    -0.166 F 
ENDBRANCH  24  28
ENDBRANCH   5  22
TORSDOF 4
